
Note: No compatibility mode selected!


Circuit: * 555 charge phase: cap charges from vcc/3 toward vcc via ra+rb

Doing analysis at TEMP = 27.000000 and TNOM = 27.000000

Using transient initial conditions

No. of Data Rows : 1511
        * 555 charge phase: cap charges from vcc/3 toward vcc via ra+rb
        Transient Analysis  Fri Mar 27 20:39:05  2026
--------------------------------------------------------------------------------
Index   time            v(nc)           
--------------------------------------------------------------------------------
0	1.000000e-07	1.666730e+00	
1	2.000000e-07	1.666761e+00	
2	4.000000e-07	1.666821e+00	
3	8.000000e-07	1.666942e+00	
4	1.600000e-06	1.667185e+00	
5	3.200000e-06	1.667670e+00	
6	6.400000e-06	1.668639e+00	
7	1.000000e-05	1.669729e+00	
8	1.064000e-05	1.669923e+00	
9	1.192000e-05	1.670310e+00	
10	1.448000e-05	1.671085e+00	
11	1.960000e-05	1.672634e+00	
12	2.960000e-05	1.675658e+00	
13	3.960000e-05	1.678678e+00	
14	4.960000e-05	1.681696e+00	
15	5.960000e-05	1.684712e+00	
16	6.960000e-05	1.687724e+00	
17	7.960000e-05	1.690734e+00	
18	8.960000e-05	1.693741e+00	
19	9.960000e-05	1.696745e+00	
20	1.096000e-04	1.699747e+00	
21	1.196000e-04	1.702746e+00	
22	1.296000e-04	1.705742e+00	
23	1.396000e-04	1.708735e+00	
24	1.496000e-04	1.711726e+00	
25	1.596000e-04	1.714714e+00	
26	1.696000e-04	1.717699e+00	
27	1.796000e-04	1.720682e+00	
28	1.896000e-04	1.723662e+00	
29	1.996000e-04	1.726639e+00	
30	2.096000e-04	1.729613e+00	
31	2.196000e-04	1.732585e+00	
32	2.296000e-04	1.735554e+00	
33	2.396000e-04	1.738520e+00	
34	2.496000e-04	1.741484e+00	
35	2.596000e-04	1.744445e+00	
36	2.696000e-04	1.747403e+00	
37	2.796000e-04	1.750359e+00	
38	2.896000e-04	1.753312e+00	
39	2.996000e-04	1.756262e+00	
40	3.096000e-04	1.759209e+00	
41	3.196000e-04	1.762154e+00	
42	3.296000e-04	1.765096e+00	
43	3.396000e-04	1.768036e+00	
44	3.496000e-04	1.770973e+00	
45	3.596000e-04	1.773907e+00	
46	3.696000e-04	1.776838e+00	
47	3.796000e-04	1.779767e+00	
48	3.896000e-04	1.782693e+00	
49	3.996000e-04	1.785617e+00	
50	4.096000e-04	1.788538e+00	
51	4.196000e-04	1.791456e+00	
52	4.296000e-04	1.794371e+00	
53	4.396000e-04	1.797284e+00	
54	4.496000e-04	1.800194e+00	

Index   time            v(nc)           
--------------------------------------------------------------------------------
55	4.596000e-04	1.803102e+00	
56	4.696000e-04	1.806007e+00	
57	4.796000e-04	1.808909e+00	
58	4.896000e-04	1.811809e+00	
59	4.996000e-04	1.814706e+00	
60	5.096000e-04	1.817600e+00	
61	5.196000e-04	1.820492e+00	
62	5.296000e-04	1.823381e+00	
63	5.396000e-04	1.826268e+00	
64	5.496000e-04	1.829152e+00	
65	5.596000e-04	1.832033e+00	
66	5.696000e-04	1.834912e+00	
67	5.796000e-04	1.837788e+00	
68	5.896000e-04	1.840661e+00	
69	5.996000e-04	1.843532e+00	
70	6.096000e-04	1.846400e+00	
71	6.196000e-04	1.849266e+00	
72	6.296000e-04	1.852129e+00	
73	6.396000e-04	1.854989e+00	
74	6.496000e-04	1.857847e+00	
75	6.596000e-04	1.860702e+00	
76	6.696000e-04	1.863555e+00	
77	6.796000e-04	1.866405e+00	
78	6.896000e-04	1.869252e+00	
79	6.996000e-04	1.872097e+00	
80	7.096000e-04	1.874939e+00	
81	7.196000e-04	1.877779e+00	
82	7.296000e-04	1.880616e+00	
83	7.396000e-04	1.883451e+00	
84	7.496000e-04	1.886283e+00	
85	7.596000e-04	1.889112e+00	
86	7.696000e-04	1.891939e+00	
87	7.796000e-04	1.894763e+00	
88	7.896000e-04	1.897585e+00	
89	7.996000e-04	1.900404e+00	
90	8.096000e-04	1.903220e+00	
91	8.196000e-04	1.906034e+00	
92	8.296000e-04	1.908846e+00	
93	8.396000e-04	1.911654e+00	
94	8.496000e-04	1.914461e+00	
95	8.596000e-04	1.917265e+00	
96	8.696000e-04	1.920066e+00	
97	8.796000e-04	1.922864e+00	
98	8.896000e-04	1.925661e+00	
99	8.996000e-04	1.928454e+00	
100	9.096000e-04	1.931245e+00	
101	9.196000e-04	1.934034e+00	
102	9.296000e-04	1.936820e+00	
103	9.396000e-04	1.939603e+00	
104	9.496000e-04	1.942384e+00	
105	9.596000e-04	1.945162e+00	
106	9.696000e-04	1.947938e+00	
107	9.796000e-04	1.950712e+00	
108	9.896000e-04	1.953482e+00	
109	9.996000e-04	1.956251e+00	
110	1.009600e-03	1.959017e+00	
111	1.019600e-03	1.961780e+00	
112	1.029600e-03	1.964541e+00	

Index   time            v(nc)           
--------------------------------------------------------------------------------
113	1.039600e-03	1.967299e+00	
114	1.049600e-03	1.970055e+00	
115	1.059600e-03	1.972808e+00	
116	1.069600e-03	1.975559e+00	
117	1.079600e-03	1.978307e+00	
118	1.089600e-03	1.981053e+00	
119	1.099600e-03	1.983796e+00	
120	1.109600e-03	1.986537e+00	
121	1.119600e-03	1.989275e+00	
122	1.129600e-03	1.992011e+00	
123	1.139600e-03	1.994744e+00	
124	1.149600e-03	1.997475e+00	
125	1.159600e-03	2.000203e+00	
126	1.169600e-03	2.002929e+00	
127	1.179600e-03	2.005652e+00	
128	1.189600e-03	2.008373e+00	
129	1.199600e-03	2.011092e+00	
130	1.209600e-03	2.013808e+00	
131	1.219600e-03	2.016521e+00	
132	1.229600e-03	2.019232e+00	
133	1.239600e-03	2.021941e+00	
134	1.249600e-03	2.024647e+00	
135	1.259600e-03	2.027350e+00	
136	1.269600e-03	2.030051e+00	
137	1.279600e-03	2.032750e+00	
138	1.289600e-03	2.035446e+00	
139	1.299600e-03	2.038140e+00	
140	1.309600e-03	2.040832e+00	
141	1.319600e-03	2.043521e+00	
142	1.329600e-03	2.046207e+00	
143	1.339600e-03	2.048891e+00	
144	1.349600e-03	2.051573e+00	
145	1.359600e-03	2.054252e+00	
146	1.369600e-03	2.056929e+00	
147	1.379600e-03	2.059603e+00	
148	1.389600e-03	2.062275e+00	
149	1.399600e-03	2.064944e+00	
150	1.409600e-03	2.067611e+00	
151	1.419600e-03	2.070276e+00	
152	1.429600e-03	2.072938e+00	
153	1.439600e-03	2.075598e+00	
154	1.449600e-03	2.078255e+00	
155	1.459600e-03	2.080910e+00	
156	1.469600e-03	2.083563e+00	
157	1.479600e-03	2.086213e+00	
158	1.489600e-03	2.088860e+00	
159	1.499600e-03	2.091506e+00	
160	1.509600e-03	2.094149e+00	
161	1.519600e-03	2.096789e+00	
162	1.529600e-03	2.099427e+00	
163	1.539600e-03	2.102063e+00	
164	1.549600e-03	2.104696e+00	
165	1.559600e-03	2.107327e+00	
166	1.569600e-03	2.109956e+00	
167	1.579600e-03	2.112582e+00	
168	1.589600e-03	2.115205e+00	
169	1.599600e-03	2.117827e+00	
170	1.609600e-03	2.120446e+00	

Index   time            v(nc)           
--------------------------------------------------------------------------------
171	1.619600e-03	2.123062e+00	
172	1.629600e-03	2.125677e+00	
173	1.639600e-03	2.128288e+00	
174	1.649600e-03	2.130898e+00	
175	1.659600e-03	2.133505e+00	
176	1.669600e-03	2.136110e+00	
177	1.679600e-03	2.138712e+00	
178	1.689600e-03	2.141312e+00	
179	1.699600e-03	2.143910e+00	
180	1.709600e-03	2.146505e+00	
181	1.719600e-03	2.149098e+00	
182	1.729600e-03	2.151688e+00	
183	1.739600e-03	2.154277e+00	
184	1.749600e-03	2.156862e+00	
185	1.759600e-03	2.159446e+00	
186	1.769600e-03	2.162027e+00	
187	1.779600e-03	2.164606e+00	
188	1.789600e-03	2.167182e+00	
189	1.799600e-03	2.169756e+00	
190	1.809600e-03	2.172328e+00	
191	1.819600e-03	2.174898e+00	
192	1.829600e-03	2.177465e+00	
193	1.839600e-03	2.180029e+00	
194	1.849600e-03	2.182592e+00	
195	1.859600e-03	2.185152e+00	
196	1.869600e-03	2.187710e+00	
197	1.879600e-03	2.190265e+00	
198	1.889600e-03	2.192818e+00	
199	1.899600e-03	2.195369e+00	
200	1.909600e-03	2.197918e+00	
201	1.919600e-03	2.200464e+00	
202	1.929600e-03	2.203008e+00	
203	1.939600e-03	2.205549e+00	
204	1.949600e-03	2.208089e+00	
205	1.959600e-03	2.210626e+00	
206	1.969600e-03	2.213160e+00	
207	1.979600e-03	2.215693e+00	
208	1.989600e-03	2.218223e+00	
209	1.999600e-03	2.220750e+00	
210	2.009600e-03	2.223276e+00	
211	2.019600e-03	2.225799e+00	
212	2.029600e-03	2.228320e+00	
213	2.039600e-03	2.230838e+00	
214	2.049600e-03	2.233355e+00	
215	2.059600e-03	2.235869e+00	
216	2.069600e-03	2.238380e+00	
217	2.079600e-03	2.240890e+00	
218	2.089600e-03	2.243397e+00	
219	2.099600e-03	2.245902e+00	
220	2.109600e-03	2.248404e+00	
221	2.119600e-03	2.250905e+00	
222	2.129600e-03	2.253403e+00	
223	2.139600e-03	2.255898e+00	
224	2.149600e-03	2.258392e+00	
225	2.159600e-03	2.260883e+00	
226	2.169600e-03	2.263372e+00	
227	2.179600e-03	2.265859e+00	
228	2.189600e-03	2.268343e+00	

Index   time            v(nc)           
--------------------------------------------------------------------------------
229	2.199600e-03	2.270826e+00	
230	2.209600e-03	2.273306e+00	
231	2.219600e-03	2.275783e+00	
232	2.229600e-03	2.278259e+00	
233	2.239600e-03	2.280732e+00	
234	2.249600e-03	2.283203e+00	
235	2.259600e-03	2.285671e+00	
236	2.269600e-03	2.288138e+00	
237	2.279600e-03	2.290602e+00	
238	2.289600e-03	2.293064e+00	
239	2.299600e-03	2.295524e+00	
240	2.309600e-03	2.297981e+00	
241	2.319600e-03	2.300437e+00	
242	2.329600e-03	2.302890e+00	
243	2.339600e-03	2.305340e+00	
244	2.349600e-03	2.307789e+00	
245	2.359600e-03	2.310235e+00	
246	2.369600e-03	2.312679e+00	
247	2.379600e-03	2.315121e+00	
248	2.389600e-03	2.317561e+00	
249	2.399600e-03	2.319999e+00	
250	2.409600e-03	2.322434e+00	
251	2.419600e-03	2.324867e+00	
252	2.429600e-03	2.327298e+00	
253	2.439600e-03	2.329726e+00	
254	2.449600e-03	2.332153e+00	
255	2.459600e-03	2.334577e+00	
256	2.469600e-03	2.336999e+00	
257	2.479600e-03	2.339419e+00	
258	2.489600e-03	2.341836e+00	
259	2.499600e-03	2.344252e+00	
260	2.509600e-03	2.346665e+00	
261	2.519600e-03	2.349076e+00	
262	2.529600e-03	2.351485e+00	
263	2.539600e-03	2.353892e+00	
264	2.549600e-03	2.356296e+00	
265	2.559600e-03	2.358698e+00	
266	2.569600e-03	2.361098e+00	
267	2.579600e-03	2.363496e+00	
268	2.589600e-03	2.365892e+00	
269	2.599600e-03	2.368286e+00	
270	2.609600e-03	2.370677e+00	
271	2.619600e-03	2.373066e+00	
272	2.629600e-03	2.375453e+00	
273	2.639600e-03	2.377838e+00	
274	2.649600e-03	2.380221e+00	
275	2.659600e-03	2.382601e+00	
276	2.669600e-03	2.384980e+00	
277	2.679600e-03	2.387356e+00	
278	2.689600e-03	2.389730e+00	
279	2.699600e-03	2.392102e+00	
280	2.709600e-03	2.394472e+00	
281	2.719600e-03	2.396839e+00	
282	2.729600e-03	2.399205e+00	
283	2.739600e-03	2.401568e+00	
284	2.749600e-03	2.403929e+00	
285	2.759600e-03	2.406288e+00	
286	2.769600e-03	2.408645e+00	

Index   time            v(nc)           
--------------------------------------------------------------------------------
287	2.779600e-03	2.411000e+00	
288	2.789600e-03	2.413352e+00	
289	2.799600e-03	2.415703e+00	
290	2.809600e-03	2.418051e+00	
291	2.819600e-03	2.420397e+00	
292	2.829600e-03	2.422741e+00	
293	2.839600e-03	2.425083e+00	
294	2.849600e-03	2.427423e+00	
295	2.859600e-03	2.429760e+00	
296	2.869600e-03	2.432096e+00	
297	2.879600e-03	2.434429e+00	
298	2.889600e-03	2.436761e+00	
299	2.899600e-03	2.439090e+00	
300	2.909600e-03	2.441417e+00	
301	2.919600e-03	2.443742e+00	
302	2.929600e-03	2.446064e+00	
303	2.939600e-03	2.448385e+00	
304	2.949600e-03	2.450704e+00	
305	2.959600e-03	2.453020e+00	
306	2.969600e-03	2.455335e+00	
307	2.979600e-03	2.457647e+00	
308	2.989600e-03	2.459957e+00	
309	2.999600e-03	2.462265e+00	
310	3.009600e-03	2.464571e+00	
311	3.019600e-03	2.466875e+00	
312	3.029600e-03	2.469177e+00	
313	3.039600e-03	2.471477e+00	
314	3.049600e-03	2.473774e+00	
315	3.059600e-03	2.476070e+00	
316	3.069600e-03	2.478363e+00	
317	3.079600e-03	2.480654e+00	
318	3.089600e-03	2.482944e+00	
319	3.099600e-03	2.485231e+00	
320	3.109600e-03	2.487516e+00	
321	3.119600e-03	2.489799e+00	
322	3.129600e-03	2.492080e+00	
323	3.139600e-03	2.494359e+00	
324	3.149600e-03	2.496636e+00	
325	3.159600e-03	2.498911e+00	
326	3.169600e-03	2.501183e+00	
327	3.179600e-03	2.503454e+00	
328	3.189600e-03	2.505722e+00	
329	3.199600e-03	2.507989e+00	
330	3.209600e-03	2.510253e+00	
331	3.219600e-03	2.512516e+00	
332	3.229600e-03	2.514776e+00	
333	3.239600e-03	2.517034e+00	
334	3.249600e-03	2.519291e+00	
335	3.259600e-03	2.521545e+00	
336	3.269600e-03	2.523797e+00	
337	3.279600e-03	2.526047e+00	
338	3.289600e-03	2.528295e+00	
339	3.299600e-03	2.530541e+00	
340	3.309600e-03	2.532785e+00	
341	3.319600e-03	2.535027e+00	
342	3.329600e-03	2.537267e+00	
343	3.339600e-03	2.539504e+00	
344	3.349600e-03	2.541740e+00	

Index   time            v(nc)           
--------------------------------------------------------------------------------
345	3.359600e-03	2.543974e+00	
346	3.369600e-03	2.546206e+00	
347	3.379600e-03	2.548435e+00	
348	3.389600e-03	2.550663e+00	
349	3.399600e-03	2.552889e+00	
350	3.409600e-03	2.555112e+00	
351	3.419600e-03	2.557334e+00	
352	3.429600e-03	2.559554e+00	
353	3.439600e-03	2.561771e+00	
354	3.449600e-03	2.563987e+00	
355	3.459600e-03	2.566200e+00	
356	3.469600e-03	2.568412e+00	
357	3.479600e-03	2.570621e+00	
358	3.489600e-03	2.572829e+00	
359	3.499600e-03	2.575034e+00	
360	3.509600e-03	2.577238e+00	
361	3.519600e-03	2.579439e+00	
362	3.529600e-03	2.581639e+00	
363	3.539600e-03	2.583836e+00	
364	3.549600e-03	2.586032e+00	
365	3.559600e-03	2.588225e+00	
366	3.569600e-03	2.590417e+00	
367	3.579600e-03	2.592607e+00	
368	3.589600e-03	2.594794e+00	
369	3.599600e-03	2.596980e+00	
370	3.609600e-03	2.599163e+00	
371	3.619600e-03	2.601345e+00	
372	3.629600e-03	2.603524e+00	
373	3.639600e-03	2.605702e+00	
374	3.649600e-03	2.607878e+00	
375	3.659600e-03	2.610051e+00	
376	3.669600e-03	2.612223e+00	
377	3.679600e-03	2.614393e+00	
378	3.689600e-03	2.616561e+00	
379	3.699600e-03	2.618726e+00	
380	3.709600e-03	2.620890e+00	
381	3.719600e-03	2.623052e+00	
382	3.729600e-03	2.625212e+00	
383	3.739600e-03	2.627370e+00	
384	3.749600e-03	2.629526e+00	
385	3.759600e-03	2.631680e+00	
386	3.769600e-03	2.633832e+00	
387	3.779600e-03	2.635982e+00	
388	3.789600e-03	2.638130e+00	
389	3.799600e-03	2.640276e+00	
390	3.809600e-03	2.642420e+00	
391	3.819600e-03	2.644563e+00	
392	3.829600e-03	2.646703e+00	
393	3.839600e-03	2.648841e+00	
394	3.849600e-03	2.650978e+00	
395	3.859600e-03	2.653112e+00	
396	3.869600e-03	2.655245e+00	
397	3.879600e-03	2.657376e+00	
398	3.889600e-03	2.659504e+00	
399	3.899600e-03	2.661631e+00	
400	3.909600e-03	2.663756e+00	
401	3.919600e-03	2.665879e+00	
402	3.929600e-03	2.668000e+00	

Index   time            v(nc)           
--------------------------------------------------------------------------------
403	3.939600e-03	2.670119e+00	
404	3.949600e-03	2.672236e+00	
405	3.959600e-03	2.674351e+00	
406	3.969600e-03	2.676464e+00	
407	3.979600e-03	2.678576e+00	
408	3.989600e-03	2.680685e+00	
409	3.999600e-03	2.682793e+00	
410	4.009600e-03	2.684898e+00	
411	4.019600e-03	2.687002e+00	
412	4.029600e-03	2.689104e+00	
413	4.039600e-03	2.691203e+00	
414	4.049600e-03	2.693301e+00	
415	4.059600e-03	2.695397e+00	
416	4.069600e-03	2.697492e+00	
417	4.079600e-03	2.699584e+00	
418	4.089600e-03	2.701674e+00	
419	4.099600e-03	2.703763e+00	
420	4.109600e-03	2.705849e+00	
421	4.119600e-03	2.707934e+00	
422	4.129600e-03	2.710017e+00	
423	4.139600e-03	2.712097e+00	
424	4.149600e-03	2.714176e+00	
425	4.159600e-03	2.716253e+00	
426	4.169600e-03	2.718329e+00	
427	4.179600e-03	2.720402e+00	
428	4.189600e-03	2.722473e+00	
429	4.199600e-03	2.724543e+00	
430	4.209600e-03	2.726611e+00	
431	4.219600e-03	2.728676e+00	
432	4.229600e-03	2.730740e+00	
433	4.239600e-03	2.732802e+00	
434	4.249600e-03	2.734862e+00	
435	4.259600e-03	2.736921e+00	
436	4.269600e-03	2.738977e+00	
437	4.279600e-03	2.741032e+00	
438	4.289600e-03	2.743084e+00	
439	4.299600e-03	2.745135e+00	
440	4.309600e-03	2.747184e+00	
441	4.319600e-03	2.749231e+00	
442	4.329600e-03	2.751276e+00	
443	4.339600e-03	2.753320e+00	
444	4.349600e-03	2.755361e+00	
445	4.359600e-03	2.757401e+00	
446	4.369600e-03	2.759439e+00	
447	4.379600e-03	2.761475e+00	
448	4.389600e-03	2.763509e+00	
449	4.399600e-03	2.765541e+00	
450	4.409600e-03	2.767571e+00	
451	4.419600e-03	2.769600e+00	
452	4.429600e-03	2.771627e+00	
453	4.439600e-03	2.773652e+00	
454	4.449600e-03	2.775675e+00	
455	4.459600e-03	2.777696e+00	
456	4.469600e-03	2.779715e+00	
457	4.479600e-03	2.781733e+00	
458	4.489600e-03	2.783748e+00	
459	4.499600e-03	2.785762e+00	
460	4.509600e-03	2.787774e+00	

Index   time            v(nc)           
--------------------------------------------------------------------------------
461	4.519600e-03	2.789784e+00	
462	4.529600e-03	2.791793e+00	
463	4.539600e-03	2.793799e+00	
464	4.549600e-03	2.795804e+00	
465	4.559600e-03	2.797807e+00	
466	4.569600e-03	2.799808e+00	
467	4.579600e-03	2.801807e+00	
468	4.589600e-03	2.803805e+00	
469	4.599600e-03	2.805800e+00	
470	4.609600e-03	2.807794e+00	
471	4.619600e-03	2.809786e+00	
472	4.629600e-03	2.811776e+00	
473	4.639600e-03	2.813765e+00	
474	4.649600e-03	2.815751e+00	
475	4.659600e-03	2.817736e+00	
476	4.669600e-03	2.819719e+00	
477	4.679600e-03	2.821700e+00	
478	4.689600e-03	2.823680e+00	
479	4.699600e-03	2.825657e+00	
480	4.709600e-03	2.827633e+00	
481	4.719600e-03	2.829607e+00	
482	4.729600e-03	2.831579e+00	
483	4.739600e-03	2.833550e+00	
484	4.749600e-03	2.835518e+00	
485	4.759600e-03	2.837485e+00	
486	4.769600e-03	2.839450e+00	
487	4.779600e-03	2.841413e+00	
488	4.789600e-03	2.843375e+00	
489	4.799600e-03	2.845334e+00	
490	4.809600e-03	2.847292e+00	
491	4.819600e-03	2.849248e+00	
492	4.829600e-03	2.851203e+00	
493	4.839600e-03	2.853155e+00	
494	4.849600e-03	2.855106e+00	
495	4.859600e-03	2.857055e+00	
496	4.869600e-03	2.859002e+00	
497	4.879600e-03	2.860948e+00	
498	4.889600e-03	2.862892e+00	
499	4.899600e-03	2.864834e+00	
500	4.909600e-03	2.866774e+00	
501	4.919600e-03	2.868712e+00	
502	4.929600e-03	2.870649e+00	
503	4.939600e-03	2.872584e+00	
504	4.949600e-03	2.874517e+00	
505	4.959600e-03	2.876448e+00	
506	4.969600e-03	2.878378e+00	
507	4.979600e-03	2.880306e+00	
508	4.989600e-03	2.882232e+00	
509	4.999600e-03	2.884156e+00	
510	5.009600e-03	2.886079e+00	
511	5.019600e-03	2.888000e+00	
512	5.029600e-03	2.889919e+00	
513	5.039600e-03	2.891836e+00	
514	5.049600e-03	2.893752e+00	
515	5.059600e-03	2.895666e+00	
516	5.069600e-03	2.897578e+00	
517	5.079600e-03	2.899488e+00	
518	5.089600e-03	2.901397e+00	

Index   time            v(nc)           
--------------------------------------------------------------------------------
519	5.099600e-03	2.903304e+00	
520	5.109600e-03	2.905209e+00	
521	5.119600e-03	2.907113e+00	
522	5.129600e-03	2.909014e+00	
523	5.139600e-03	2.910915e+00	
524	5.149600e-03	2.912813e+00	
525	5.159600e-03	2.914709e+00	
526	5.169600e-03	2.916604e+00	
527	5.179600e-03	2.918497e+00	
528	5.189600e-03	2.920389e+00	
529	5.199600e-03	2.922278e+00	
530	5.209600e-03	2.924166e+00	
531	5.219600e-03	2.926053e+00	
532	5.229600e-03	2.927937e+00	
533	5.239600e-03	2.929820e+00	
534	5.249600e-03	2.931701e+00	
535	5.259600e-03	2.933581e+00	
536	5.269600e-03	2.935458e+00	
537	5.279600e-03	2.937334e+00	
538	5.289600e-03	2.939209e+00	
539	5.299600e-03	2.941081e+00	
540	5.309600e-03	2.942952e+00	
541	5.319600e-03	2.944821e+00	
542	5.329600e-03	2.946689e+00	
543	5.339600e-03	2.948555e+00	
544	5.349600e-03	2.950419e+00	
545	5.359600e-03	2.952281e+00	
546	5.369600e-03	2.954142e+00	
547	5.379600e-03	2.956001e+00	
548	5.389600e-03	2.957858e+00	
549	5.399600e-03	2.959714e+00	
550	5.409600e-03	2.961568e+00	
551	5.419600e-03	2.963420e+00	
552	5.429600e-03	2.965271e+00	
553	5.439600e-03	2.967120e+00	
554	5.449600e-03	2.968967e+00	
555	5.459600e-03	2.970812e+00	
556	5.469600e-03	2.972656e+00	
557	5.479600e-03	2.974499e+00	
558	5.489600e-03	2.976339e+00	
559	5.499600e-03	2.978178e+00	
560	5.509600e-03	2.980015e+00	
561	5.519600e-03	2.981851e+00	
562	5.529600e-03	2.983684e+00	
563	5.539600e-03	2.985517e+00	
564	5.549600e-03	2.987347e+00	
565	5.559600e-03	2.989176e+00	
566	5.569600e-03	2.991003e+00	
567	5.579600e-03	2.992829e+00	
568	5.589600e-03	2.994653e+00	
569	5.599600e-03	2.996475e+00	
570	5.609600e-03	2.998295e+00	
571	5.619600e-03	3.000114e+00	
572	5.629600e-03	3.001932e+00	
573	5.639600e-03	3.003747e+00	
574	5.649600e-03	3.005561e+00	
575	5.659600e-03	3.007373e+00	
576	5.669600e-03	3.009184e+00	

Index   time            v(nc)           
--------------------------------------------------------------------------------
577	5.679600e-03	3.010993e+00	
578	5.689600e-03	3.012800e+00	
579	5.699600e-03	3.014606e+00	
580	5.709600e-03	3.016410e+00	
581	5.719600e-03	3.018213e+00	
582	5.729600e-03	3.020013e+00	
583	5.739600e-03	3.021813e+00	
584	5.749600e-03	3.023610e+00	
585	5.759600e-03	3.025406e+00	
586	5.769600e-03	3.027200e+00	
587	5.779600e-03	3.028993e+00	
588	5.789600e-03	3.030784e+00	
589	5.799600e-03	3.032573e+00	
590	5.809600e-03	3.034361e+00	
591	5.819600e-03	3.036147e+00	
592	5.829600e-03	3.037932e+00	
593	5.839600e-03	3.039715e+00	
594	5.849600e-03	3.041496e+00	
595	5.859600e-03	3.043276e+00	
596	5.869600e-03	3.045054e+00	
597	5.879600e-03	3.046830e+00	
598	5.889600e-03	3.048605e+00	
599	5.899600e-03	3.050378e+00	
600	5.909600e-03	3.052150e+00	
601	5.919600e-03	3.053920e+00	
602	5.929600e-03	3.055688e+00	
603	5.939600e-03	3.057455e+00	
604	5.949600e-03	3.059220e+00	
605	5.959600e-03	3.060983e+00	
606	5.969600e-03	3.062745e+00	
607	5.979600e-03	3.064506e+00	
608	5.989600e-03	3.066264e+00	
609	5.999600e-03	3.068022e+00	
610	6.009600e-03	3.069777e+00	
611	6.019600e-03	3.071531e+00	
612	6.029600e-03	3.073283e+00	
613	6.039600e-03	3.075034e+00	
614	6.049600e-03	3.076783e+00	
615	6.059600e-03	3.078531e+00	
616	6.069600e-03	3.080277e+00	
617	6.079600e-03	3.082021e+00	
618	6.089600e-03	3.083764e+00	
619	6.099600e-03	3.085505e+00	
620	6.109600e-03	3.087245e+00	
621	6.119600e-03	3.088983e+00	
622	6.129600e-03	3.090720e+00	
623	6.139600e-03	3.092455e+00	
624	6.149600e-03	3.094188e+00	
625	6.159600e-03	3.095920e+00	
626	6.169600e-03	3.097650e+00	
627	6.179600e-03	3.099378e+00	
628	6.189600e-03	3.101106e+00	
629	6.199600e-03	3.102831e+00	
630	6.209600e-03	3.104555e+00	
631	6.219600e-03	3.106277e+00	
632	6.229600e-03	3.107998e+00	
633	6.239600e-03	3.109717e+00	
634	6.249600e-03	3.111435e+00	

Index   time            v(nc)           
--------------------------------------------------------------------------------
635	6.259600e-03	3.113151e+00	
636	6.269600e-03	3.114866e+00	
637	6.279600e-03	3.116579e+00	
638	6.289600e-03	3.118290e+00	
639	6.299600e-03	3.120000e+00	
640	6.309600e-03	3.121708e+00	
641	6.319600e-03	3.123415e+00	
642	6.329600e-03	3.125120e+00	
643	6.339600e-03	3.126824e+00	
644	6.349600e-03	3.128526e+00	
645	6.359600e-03	3.130226e+00	
646	6.369600e-03	3.131926e+00	
647	6.379600e-03	3.133623e+00	
648	6.389600e-03	3.135319e+00	
649	6.399600e-03	3.137013e+00	
650	6.409600e-03	3.138706e+00	
651	6.419600e-03	3.140397e+00	
652	6.429600e-03	3.142087e+00	
653	6.439600e-03	3.143776e+00	
654	6.449600e-03	3.145462e+00	
655	6.459600e-03	3.147147e+00	
656	6.469600e-03	3.148831e+00	
657	6.479600e-03	3.150513e+00	
658	6.489600e-03	3.152194e+00	
659	6.499600e-03	3.153873e+00	
660	6.509600e-03	3.155550e+00	
661	6.519600e-03	3.157226e+00	
662	6.529600e-03	3.158901e+00	
663	6.539600e-03	3.160574e+00	
664	6.549600e-03	3.162245e+00	
665	6.559600e-03	3.163915e+00	
666	6.569600e-03	3.165584e+00	
667	6.579600e-03	3.167250e+00	
668	6.589600e-03	3.168916e+00	
669	6.599600e-03	3.170580e+00	
670	6.609600e-03	3.172242e+00	
671	6.619600e-03	3.173903e+00	
672	6.629600e-03	3.175562e+00	
673	6.639600e-03	3.177220e+00	
674	6.649600e-03	3.178876e+00	
675	6.659600e-03	3.180531e+00	
676	6.669600e-03	3.182185e+00	
677	6.679600e-03	3.183836e+00	
678	6.689600e-03	3.185487e+00	
679	6.699600e-03	3.187135e+00	
680	6.709600e-03	3.188783e+00	
681	6.719600e-03	3.190429e+00	
682	6.729600e-03	3.192073e+00	
683	6.739600e-03	3.193716e+00	
684	6.749600e-03	3.195357e+00	
685	6.759600e-03	3.196997e+00	
686	6.769600e-03	3.198635e+00	
687	6.779600e-03	3.200272e+00	
688	6.789600e-03	3.201907e+00	
689	6.799600e-03	3.203541e+00	
690	6.809600e-03	3.205174e+00	
691	6.819600e-03	3.206805e+00	
692	6.829600e-03	3.208434e+00	

Index   time            v(nc)           
--------------------------------------------------------------------------------
693	6.839600e-03	3.210062e+00	
694	6.849600e-03	3.211689e+00	
695	6.859600e-03	3.213314e+00	
696	6.869600e-03	3.214937e+00	
697	6.879600e-03	3.216559e+00	
698	6.889600e-03	3.218180e+00	
699	6.899600e-03	3.219799e+00	
700	6.909600e-03	3.221416e+00	
701	6.919600e-03	3.223033e+00	
702	6.929600e-03	3.224647e+00	
703	6.939600e-03	3.226260e+00	
704	6.949600e-03	3.227872e+00	
705	6.959600e-03	3.229483e+00	
706	6.969600e-03	3.231091e+00	
707	6.979600e-03	3.232699e+00	
708	6.989600e-03	3.234305e+00	
709	6.999600e-03	3.235909e+00	
710	7.009600e-03	3.237512e+00	
711	7.019600e-03	3.239114e+00	
712	7.029600e-03	3.240714e+00	
713	7.039600e-03	3.242312e+00	
714	7.049600e-03	3.243909e+00	
715	7.059600e-03	3.245505e+00	
716	7.069600e-03	3.247099e+00	
717	7.079600e-03	3.248692e+00	
718	7.089600e-03	3.250284e+00	
719	7.099600e-03	3.251874e+00	
720	7.109600e-03	3.253462e+00	
721	7.119600e-03	3.255049e+00	
722	7.129600e-03	3.256635e+00	
723	7.139600e-03	3.258219e+00	
724	7.149600e-03	3.259802e+00	
725	7.159600e-03	3.261383e+00	
726	7.169600e-03	3.262963e+00	
727	7.179600e-03	3.264541e+00	
728	7.189600e-03	3.266118e+00	
729	7.199600e-03	3.267694e+00	
730	7.209600e-03	3.269268e+00	
731	7.219600e-03	3.270840e+00	
732	7.229600e-03	3.272412e+00	
733	7.239600e-03	3.273982e+00	
734	7.249600e-03	3.275550e+00	
735	7.259600e-03	3.277117e+00	
736	7.269600e-03	3.278682e+00	
737	7.279600e-03	3.280247e+00	
738	7.289600e-03	3.281809e+00	
739	7.299600e-03	3.283371e+00	
740	7.309600e-03	3.284930e+00	
741	7.319600e-03	3.286489e+00	
742	7.329600e-03	3.288046e+00	
743	7.339600e-03	3.289601e+00	
744	7.349600e-03	3.291156e+00	
745	7.359600e-03	3.292708e+00	
746	7.369600e-03	3.294260e+00	
747	7.379600e-03	3.295810e+00	
748	7.389600e-03	3.297358e+00	
749	7.399600e-03	3.298906e+00	
750	7.409600e-03	3.300451e+00	

Index   time            v(nc)           
--------------------------------------------------------------------------------
751	7.419600e-03	3.301996e+00	
752	7.429600e-03	3.303539e+00	
753	7.439600e-03	3.305080e+00	
754	7.449600e-03	3.306620e+00	
755	7.459600e-03	3.308159e+00	
756	7.469600e-03	3.309696e+00	
757	7.479600e-03	3.311232e+00	
758	7.489600e-03	3.312767e+00	
759	7.499600e-03	3.314300e+00	
760	7.509600e-03	3.315832e+00	
761	7.519600e-03	3.317362e+00	
762	7.529600e-03	3.318891e+00	
763	7.539600e-03	3.320419e+00	
764	7.549600e-03	3.321945e+00	
765	7.559600e-03	3.323470e+00	
766	7.569600e-03	3.324993e+00	
767	7.579600e-03	3.326515e+00	
768	7.589600e-03	3.328036e+00	
769	7.599600e-03	3.329555e+00	
770	7.609600e-03	3.331073e+00	
771	7.619600e-03	3.332589e+00	
772	7.629600e-03	3.334105e+00	
773	7.639600e-03	3.335618e+00	
774	7.649600e-03	3.337131e+00	
775	7.659600e-03	3.338642e+00	
776	7.669600e-03	3.340151e+00	
777	7.679600e-03	3.341660e+00	
778	7.689600e-03	3.343167e+00	
779	7.699600e-03	3.344672e+00	
780	7.709600e-03	3.346176e+00	
781	7.719600e-03	3.347679e+00	
782	7.729600e-03	3.349180e+00	
783	7.739600e-03	3.350681e+00	
784	7.749600e-03	3.352179e+00	
785	7.759600e-03	3.353677e+00	
786	7.769600e-03	3.355173e+00	
787	7.779600e-03	3.356667e+00	
788	7.789600e-03	3.358160e+00	
789	7.799600e-03	3.359652e+00	
790	7.809600e-03	3.361143e+00	
791	7.819600e-03	3.362632e+00	
792	7.829600e-03	3.364120e+00	
793	7.839600e-03	3.365606e+00	
794	7.849600e-03	3.367092e+00	
795	7.859600e-03	3.368575e+00	
796	7.869600e-03	3.370058e+00	
797	7.879600e-03	3.371539e+00	
798	7.889600e-03	3.373019e+00	
799	7.899600e-03	3.374497e+00	
800	7.909600e-03	3.375974e+00	
801	7.919600e-03	3.377450e+00	
802	7.929600e-03	3.378924e+00	
803	7.939600e-03	3.380397e+00	
804	7.949600e-03	3.381869e+00	
805	7.959600e-03	3.383339e+00	
806	7.969600e-03	3.384808e+00	
807	7.979600e-03	3.386276e+00	
808	7.989600e-03	3.387742e+00	

Index   time            v(nc)           
--------------------------------------------------------------------------------
809	7.999600e-03	3.389207e+00	
810	8.009600e-03	3.390671e+00	
811	8.019600e-03	3.392133e+00	
812	8.029600e-03	3.393594e+00	
813	8.039600e-03	3.395054e+00	
814	8.049600e-03	3.396513e+00	
815	8.059600e-03	3.397970e+00	
816	8.069600e-03	3.399425e+00	
817	8.079600e-03	3.400880e+00	
818	8.089600e-03	3.402333e+00	
819	8.099600e-03	3.403785e+00	
820	8.109600e-03	3.405235e+00	
821	8.119600e-03	3.406684e+00	
822	8.129600e-03	3.408132e+00	
823	8.139600e-03	3.409578e+00	
824	8.149600e-03	3.411024e+00	
825	8.159600e-03	3.412467e+00	
826	8.169600e-03	3.413910e+00	
827	8.179600e-03	3.415351e+00	
828	8.189600e-03	3.416791e+00	
829	8.199600e-03	3.418230e+00	
830	8.209600e-03	3.419667e+00	
831	8.219600e-03	3.421103e+00	
832	8.229600e-03	3.422538e+00	
833	8.239600e-03	3.423971e+00	
834	8.249600e-03	3.425403e+00	
835	8.259600e-03	3.426834e+00	
836	8.269600e-03	3.428264e+00	
837	8.279600e-03	3.429692e+00	
838	8.289600e-03	3.431119e+00	
839	8.299600e-03	3.432544e+00	
840	8.309600e-03	3.433969e+00	
841	8.319600e-03	3.435392e+00	
842	8.329600e-03	3.436813e+00	
843	8.339600e-03	3.438234e+00	
844	8.349600e-03	3.439653e+00	
845	8.359600e-03	3.441071e+00	
846	8.369600e-03	3.442487e+00	
847	8.379600e-03	3.443903e+00	
848	8.389600e-03	3.445317e+00	
849	8.399600e-03	3.446729e+00	
850	8.409600e-03	3.448141e+00	
851	8.419600e-03	3.449551e+00	
852	8.429600e-03	3.450960e+00	
853	8.439600e-03	3.452367e+00	
854	8.449600e-03	3.453774e+00	
855	8.459600e-03	3.455179e+00	
856	8.469600e-03	3.456582e+00	
857	8.479600e-03	3.457985e+00	
858	8.489600e-03	3.459386e+00	
859	8.499600e-03	3.460786e+00	
860	8.509600e-03	3.462185e+00	
861	8.519600e-03	3.463582e+00	
862	8.529600e-03	3.464978e+00	
863	8.539600e-03	3.466373e+00	
864	8.549600e-03	3.467767e+00	
865	8.559600e-03	3.469159e+00	
866	8.569600e-03	3.470550e+00	

Index   time            v(nc)           
--------------------------------------------------------------------------------
867	8.579600e-03	3.471940e+00	
868	8.589600e-03	3.473328e+00	
869	8.599600e-03	3.474716e+00	
870	8.609600e-03	3.476102e+00	
871	8.619600e-03	3.477486e+00	
872	8.629600e-03	3.478870e+00	
873	8.639600e-03	3.480252e+00	
874	8.649600e-03	3.481633e+00	
875	8.659600e-03	3.483013e+00	
876	8.669600e-03	3.484391e+00	
877	8.679600e-03	3.485768e+00	
878	8.689600e-03	3.487144e+00	
879	8.699600e-03	3.488519e+00	
880	8.709600e-03	3.489892e+00	
881	8.719600e-03	3.491265e+00	
882	8.729600e-03	3.492636e+00	
883	8.739600e-03	3.494005e+00	
884	8.749600e-03	3.495374e+00	
885	8.759600e-03	3.496741e+00	
886	8.769600e-03	3.498107e+00	
887	8.779600e-03	3.499472e+00	
888	8.789600e-03	3.500835e+00	
889	8.799600e-03	3.502197e+00	
890	8.809600e-03	3.503558e+00	
891	8.819600e-03	3.504918e+00	
892	8.829600e-03	3.506277e+00	
893	8.839600e-03	3.507634e+00	
894	8.849600e-03	3.508990e+00	
895	8.859600e-03	3.510345e+00	
896	8.869600e-03	3.511699e+00	
897	8.879600e-03	3.513051e+00	
898	8.889600e-03	3.514402e+00	
899	8.899600e-03	3.515752e+00	
900	8.909600e-03	3.517101e+00	
901	8.919600e-03	3.518448e+00	
902	8.929600e-03	3.519794e+00	
903	8.939600e-03	3.521140e+00	
904	8.949600e-03	3.522483e+00	
905	8.959600e-03	3.523826e+00	
906	8.969600e-03	3.525167e+00	
907	8.979600e-03	3.526507e+00	
908	8.989600e-03	3.527846e+00	
909	8.999600e-03	3.529184e+00	
910	9.009600e-03	3.530521e+00	
911	9.019600e-03	3.531856e+00	
912	9.029600e-03	3.533190e+00	
913	9.039600e-03	3.534523e+00	
914	9.049600e-03	3.535854e+00	
915	9.059600e-03	3.537185e+00	
916	9.069600e-03	3.538514e+00	
917	9.079600e-03	3.539842e+00	
918	9.089600e-03	3.541169e+00	
919	9.099600e-03	3.542495e+00	
920	9.109600e-03	3.543819e+00	
921	9.119600e-03	3.545142e+00	
922	9.129600e-03	3.546464e+00	
923	9.139600e-03	3.547785e+00	
924	9.149600e-03	3.549105e+00	

Index   time            v(nc)           
--------------------------------------------------------------------------------
925	9.159600e-03	3.550423e+00	
926	9.169600e-03	3.551740e+00	
927	9.179600e-03	3.553056e+00	
928	9.189600e-03	3.554371e+00	
929	9.199600e-03	3.555685e+00	
930	9.209600e-03	3.556997e+00	
931	9.219600e-03	3.558308e+00	
932	9.229600e-03	3.559618e+00	
933	9.239600e-03	3.560927e+00	
934	9.249600e-03	3.562235e+00	
935	9.259600e-03	3.563541e+00	
936	9.269600e-03	3.564846e+00	
937	9.279600e-03	3.566151e+00	
938	9.289600e-03	3.567453e+00	
939	9.299600e-03	3.568755e+00	
940	9.309600e-03	3.570056e+00	
941	9.319600e-03	3.571355e+00	
942	9.329600e-03	3.572653e+00	
943	9.339600e-03	3.573950e+00	
944	9.349600e-03	3.575246e+00	
945	9.359600e-03	3.576541e+00	
946	9.369600e-03	3.577834e+00	
947	9.379600e-03	3.579126e+00	
948	9.389600e-03	3.580418e+00	
949	9.399600e-03	3.581708e+00	
950	9.409600e-03	3.582996e+00	
951	9.419600e-03	3.584284e+00	
952	9.429600e-03	3.585570e+00	
953	9.439600e-03	3.586856e+00	
954	9.449600e-03	3.588140e+00	
955	9.459600e-03	3.589423e+00	
956	9.469600e-03	3.590704e+00	
957	9.479600e-03	3.591985e+00	
958	9.489600e-03	3.593264e+00	
959	9.499600e-03	3.594543e+00	
960	9.509600e-03	3.595820e+00	
961	9.519600e-03	3.597096e+00	
962	9.529600e-03	3.598371e+00	
963	9.539600e-03	3.599644e+00	
964	9.549600e-03	3.600917e+00	
965	9.559600e-03	3.602188e+00	
966	9.569600e-03	3.603458e+00	
967	9.579600e-03	3.604727e+00	
968	9.589600e-03	3.605995e+00	
969	9.599600e-03	3.607262e+00	
970	9.609600e-03	3.608527e+00	
971	9.619600e-03	3.609792e+00	
972	9.629600e-03	3.611055e+00	
973	9.639600e-03	3.612317e+00	
974	9.649600e-03	3.613578e+00	
975	9.659600e-03	3.614838e+00	
976	9.669600e-03	3.616096e+00	
977	9.679600e-03	3.617354e+00	
978	9.689600e-03	3.618610e+00	
979	9.699600e-03	3.619866e+00	
980	9.709600e-03	3.621120e+00	
981	9.719600e-03	3.622373e+00	
982	9.729600e-03	3.623624e+00	

Index   time            v(nc)           
--------------------------------------------------------------------------------
983	9.739600e-03	3.624875e+00	
984	9.749600e-03	3.626125e+00	
985	9.759600e-03	3.627373e+00	
986	9.769600e-03	3.628620e+00	
987	9.779600e-03	3.629866e+00	
988	9.789600e-03	3.631111e+00	
989	9.799600e-03	3.632355e+00	
990	9.809600e-03	3.633598e+00	
991	9.819600e-03	3.634840e+00	
992	9.829600e-03	3.636080e+00	
993	9.839600e-03	3.637320e+00	
994	9.849600e-03	3.638558e+00	
995	9.859600e-03	3.639795e+00	
996	9.869600e-03	3.641031e+00	
997	9.879600e-03	3.642266e+00	
998	9.889600e-03	3.643500e+00	
999	9.899600e-03	3.644732e+00	
1000	9.909600e-03	3.645964e+00	
1001	9.919600e-03	3.647194e+00	
1002	9.929600e-03	3.648423e+00	
1003	9.939600e-03	3.649651e+00	
1004	9.949600e-03	3.650878e+00	
1005	9.959600e-03	3.652104e+00	
1006	9.969600e-03	3.653329e+00	
1007	9.979600e-03	3.654553e+00	
1008	9.989600e-03	3.655775e+00	
1009	9.999600e-03	3.656997e+00	
1010	1.000960e-02	3.658217e+00	
1011	1.001960e-02	3.659437e+00	
1012	1.002960e-02	3.660655e+00	
1013	1.003960e-02	3.661872e+00	
1014	1.004960e-02	3.663088e+00	
1015	1.005960e-02	3.664302e+00	
1016	1.006960e-02	3.665516e+00	
1017	1.007960e-02	3.666729e+00	
1018	1.008960e-02	3.667940e+00	
1019	1.009960e-02	3.669151e+00	
1020	1.010960e-02	3.670360e+00	
1021	1.011960e-02	3.671568e+00	
1022	1.012960e-02	3.672775e+00	
1023	1.013960e-02	3.673981e+00	
1024	1.014960e-02	3.675186e+00	
1025	1.015960e-02	3.676390e+00	
1026	1.016960e-02	3.677593e+00	
1027	1.017960e-02	3.678795e+00	
1028	1.018960e-02	3.679995e+00	
1029	1.019960e-02	3.681195e+00	
1030	1.020960e-02	3.682393e+00	
1031	1.021960e-02	3.683590e+00	
1032	1.022960e-02	3.684786e+00	
1033	1.023960e-02	3.685981e+00	
1034	1.024960e-02	3.687175e+00	
1035	1.025960e-02	3.688368e+00	
1036	1.026960e-02	3.689560e+00	
1037	1.027960e-02	3.690751e+00	
1038	1.028960e-02	3.691941e+00	
1039	1.029960e-02	3.693129e+00	
1040	1.030960e-02	3.694317e+00	

Index   time            v(nc)           
--------------------------------------------------------------------------------
1041	1.031960e-02	3.695503e+00	
1042	1.032960e-02	3.696689e+00	
1043	1.033960e-02	3.697873e+00	
1044	1.034960e-02	3.699056e+00	
1045	1.035960e-02	3.700238e+00	
1046	1.036960e-02	3.701419e+00	
1047	1.037960e-02	3.702599e+00	
1048	1.038960e-02	3.703778e+00	
1049	1.039960e-02	3.704956e+00	
1050	1.040960e-02	3.706133e+00	
1051	1.041960e-02	3.707309e+00	
1052	1.042960e-02	3.708483e+00	
1053	1.043960e-02	3.709657e+00	
1054	1.044960e-02	3.710829e+00	
1055	1.045960e-02	3.712001e+00	
1056	1.046960e-02	3.713171e+00	
1057	1.047960e-02	3.714340e+00	
1058	1.048960e-02	3.715509e+00	
1059	1.049960e-02	3.716676e+00	
1060	1.050960e-02	3.717842e+00	
1061	1.051960e-02	3.719007e+00	
1062	1.052960e-02	3.720171e+00	
1063	1.053960e-02	3.721334e+00	
1064	1.054960e-02	3.722496e+00	
1065	1.055960e-02	3.723657e+00	
1066	1.056960e-02	3.724817e+00	
1067	1.057960e-02	3.725975e+00	
1068	1.058960e-02	3.727133e+00	
1069	1.059960e-02	3.728290e+00	
1070	1.060960e-02	3.729445e+00	
1071	1.061960e-02	3.730600e+00	
1072	1.062960e-02	3.731753e+00	
1073	1.063960e-02	3.732906e+00	
1074	1.064960e-02	3.734057e+00	
1075	1.065960e-02	3.735207e+00	
1076	1.066960e-02	3.736357e+00	
1077	1.067960e-02	3.737505e+00	
1078	1.068960e-02	3.738652e+00	
1079	1.069960e-02	3.739798e+00	
1080	1.070960e-02	3.740943e+00	
1081	1.071960e-02	3.742087e+00	
1082	1.072960e-02	3.743230e+00	
1083	1.073960e-02	3.744372e+00	
1084	1.074960e-02	3.745513e+00	
1085	1.075960e-02	3.746653e+00	
1086	1.076960e-02	3.747792e+00	
1087	1.077960e-02	3.748930e+00	
1088	1.078960e-02	3.750067e+00	
1089	1.079960e-02	3.751203e+00	
1090	1.080960e-02	3.752337e+00	
1091	1.081960e-02	3.753471e+00	
1092	1.082960e-02	3.754604e+00	
1093	1.083960e-02	3.755736e+00	
1094	1.084960e-02	3.756866e+00	
1095	1.085960e-02	3.757996e+00	
1096	1.086960e-02	3.759124e+00	
1097	1.087960e-02	3.760252e+00	
1098	1.088960e-02	3.761378e+00	

Index   time            v(nc)           
--------------------------------------------------------------------------------
1099	1.089960e-02	3.762504e+00	
1100	1.090960e-02	3.763628e+00	
1101	1.091960e-02	3.764752e+00	
1102	1.092960e-02	3.765874e+00	
1103	1.093960e-02	3.766996e+00	
1104	1.094960e-02	3.768116e+00	
1105	1.095960e-02	3.769236e+00	
1106	1.096960e-02	3.770354e+00	
1107	1.097960e-02	3.771471e+00	
1108	1.098960e-02	3.772588e+00	
1109	1.099960e-02	3.773703e+00	
1110	1.100960e-02	3.774817e+00	
1111	1.101960e-02	3.775931e+00	
1112	1.102960e-02	3.777043e+00	
1113	1.103960e-02	3.778154e+00	
1114	1.104960e-02	3.779264e+00	
1115	1.105960e-02	3.780374e+00	
1116	1.106960e-02	3.781482e+00	
1117	1.107960e-02	3.782589e+00	
1118	1.108960e-02	3.783695e+00	
1119	1.109960e-02	3.784801e+00	
1120	1.110960e-02	3.785905e+00	
1121	1.111960e-02	3.787008e+00	
1122	1.112960e-02	3.788110e+00	
1123	1.113960e-02	3.789211e+00	
1124	1.114960e-02	3.790312e+00	
1125	1.115960e-02	3.791411e+00	
1126	1.116960e-02	3.792509e+00	
1127	1.117960e-02	3.793606e+00	
1128	1.118960e-02	3.794703e+00	
1129	1.119960e-02	3.795798e+00	
1130	1.120960e-02	3.796892e+00	
1131	1.121960e-02	3.797985e+00	
1132	1.122960e-02	3.799078e+00	
1133	1.123960e-02	3.800169e+00	
1134	1.124960e-02	3.801259e+00	
1135	1.125960e-02	3.802348e+00	
1136	1.126960e-02	3.803437e+00	
1137	1.127960e-02	3.804524e+00	
1138	1.128960e-02	3.805610e+00	
1139	1.129960e-02	3.806695e+00	
1140	1.130960e-02	3.807780e+00	
1141	1.131960e-02	3.808863e+00	
1142	1.132960e-02	3.809946e+00	
1143	1.133960e-02	3.811027e+00	
1144	1.134960e-02	3.812107e+00	
1145	1.135960e-02	3.813187e+00	
1146	1.136960e-02	3.814265e+00	
1147	1.137960e-02	3.815343e+00	
1148	1.138960e-02	3.816419e+00	
1149	1.139960e-02	3.817495e+00	
1150	1.140960e-02	3.818569e+00	
1151	1.141960e-02	3.819643e+00	
1152	1.142960e-02	3.820715e+00	
1153	1.143960e-02	3.821787e+00	
1154	1.144960e-02	3.822857e+00	
1155	1.145960e-02	3.823927e+00	
1156	1.146960e-02	3.824996e+00	

Index   time            v(nc)           
--------------------------------------------------------------------------------
1157	1.147960e-02	3.826063e+00	
1158	1.148960e-02	3.827130e+00	
1159	1.149960e-02	3.828196e+00	
1160	1.150960e-02	3.829261e+00	
1161	1.151960e-02	3.830324e+00	
1162	1.152960e-02	3.831387e+00	
1163	1.153960e-02	3.832449e+00	
1164	1.154960e-02	3.833510e+00	
1165	1.155960e-02	3.834570e+00	
1166	1.156960e-02	3.835629e+00	
1167	1.157960e-02	3.836687e+00	
1168	1.158960e-02	3.837744e+00	
1169	1.159960e-02	3.838800e+00	
1170	1.160960e-02	3.839856e+00	
1171	1.161960e-02	3.840910e+00	
1172	1.162960e-02	3.841963e+00	
1173	1.163960e-02	3.843015e+00	
1174	1.164960e-02	3.844067e+00	
1175	1.165960e-02	3.845117e+00	
1176	1.166960e-02	3.846166e+00	
1177	1.167960e-02	3.847215e+00	
1178	1.168960e-02	3.848262e+00	
1179	1.169960e-02	3.849309e+00	
1180	1.170960e-02	3.850354e+00	
1181	1.171960e-02	3.851399e+00	
1182	1.172960e-02	3.852443e+00	
1183	1.173960e-02	3.853486e+00	
1184	1.174960e-02	3.854527e+00	
1185	1.175960e-02	3.855568e+00	
1186	1.176960e-02	3.856608e+00	
1187	1.177960e-02	3.857647e+00	
1188	1.178960e-02	3.858685e+00	
1189	1.179960e-02	3.859722e+00	
1190	1.180960e-02	3.860758e+00	
1191	1.181960e-02	3.861794e+00	
1192	1.182960e-02	3.862828e+00	
1193	1.183960e-02	3.863861e+00	
1194	1.184960e-02	3.864894e+00	
1195	1.185960e-02	3.865925e+00	
1196	1.186960e-02	3.866956e+00	
1197	1.187960e-02	3.867985e+00	
1198	1.188960e-02	3.869014e+00	
1199	1.189960e-02	3.870041e+00	
1200	1.190960e-02	3.871068e+00	
1201	1.191960e-02	3.872094e+00	
1202	1.192960e-02	3.873119e+00	
1203	1.193960e-02	3.874143e+00	
1204	1.194960e-02	3.875166e+00	
1205	1.195960e-02	3.876188e+00	
1206	1.196960e-02	3.877209e+00	
1207	1.197960e-02	3.878230e+00	
1208	1.198960e-02	3.879249e+00	
1209	1.199960e-02	3.880267e+00	
1210	1.200960e-02	3.881285e+00	
1211	1.201960e-02	3.882301e+00	
1212	1.202960e-02	3.883317e+00	
1213	1.203960e-02	3.884332e+00	
1214	1.204960e-02	3.885345e+00	

Index   time            v(nc)           
--------------------------------------------------------------------------------
1215	1.205960e-02	3.886358e+00	
1216	1.206960e-02	3.887370e+00	
1217	1.207960e-02	3.888381e+00	
1218	1.208960e-02	3.889391e+00	
1219	1.209960e-02	3.890401e+00	
1220	1.210960e-02	3.891409e+00	
1221	1.211960e-02	3.892416e+00	
1222	1.212960e-02	3.893423e+00	
1223	1.213960e-02	3.894428e+00	
1224	1.214960e-02	3.895433e+00	
1225	1.215960e-02	3.896436e+00	
1226	1.216960e-02	3.897439e+00	
1227	1.217960e-02	3.898441e+00	
1228	1.218960e-02	3.899442e+00	
1229	1.219960e-02	3.900442e+00	
1230	1.220960e-02	3.901441e+00	
1231	1.221960e-02	3.902439e+00	
1232	1.222960e-02	3.903437e+00	
1233	1.223960e-02	3.904433e+00	
1234	1.224960e-02	3.905429e+00	
1235	1.225960e-02	3.906423e+00	
1236	1.226960e-02	3.907417e+00	
1237	1.227960e-02	3.908410e+00	
1238	1.228960e-02	3.909402e+00	
1239	1.229960e-02	3.910393e+00	
1240	1.230960e-02	3.911383e+00	
1241	1.231960e-02	3.912372e+00	
1242	1.232960e-02	3.913360e+00	
1243	1.233960e-02	3.914348e+00	
1244	1.234960e-02	3.915334e+00	
1245	1.235960e-02	3.916320e+00	
1246	1.236960e-02	3.917305e+00	
1247	1.237960e-02	3.918288e+00	
1248	1.238960e-02	3.919271e+00	
1249	1.239960e-02	3.920253e+00	
1250	1.240960e-02	3.921235e+00	
1251	1.241960e-02	3.922215e+00	
1252	1.242960e-02	3.923194e+00	
1253	1.243960e-02	3.924173e+00	
1254	1.244960e-02	3.925150e+00	
1255	1.245960e-02	3.926127e+00	
1256	1.246960e-02	3.927103e+00	
1257	1.247960e-02	3.928078e+00	
1258	1.248960e-02	3.929052e+00	
1259	1.249960e-02	3.930025e+00	
1260	1.250960e-02	3.930997e+00	
1261	1.251960e-02	3.931968e+00	
1262	1.252960e-02	3.932939e+00	
1263	1.253960e-02	3.933909e+00	
1264	1.254960e-02	3.934877e+00	
1265	1.255960e-02	3.935845e+00	
1266	1.256960e-02	3.936812e+00	
1267	1.257960e-02	3.937778e+00	
1268	1.258960e-02	3.938743e+00	
1269	1.259960e-02	3.939708e+00	
1270	1.260960e-02	3.940671e+00	
1271	1.261960e-02	3.941634e+00	
1272	1.262960e-02	3.942596e+00	

Index   time            v(nc)           
--------------------------------------------------------------------------------
1273	1.263960e-02	3.943556e+00	
1274	1.264960e-02	3.944516e+00	
1275	1.265960e-02	3.945475e+00	
1276	1.266960e-02	3.946434e+00	
1277	1.267960e-02	3.947391e+00	
1278	1.268960e-02	3.948348e+00	
1279	1.269960e-02	3.949303e+00	
1280	1.270960e-02	3.950258e+00	
1281	1.271960e-02	3.951212e+00	
1282	1.272960e-02	3.952165e+00	
1283	1.273960e-02	3.953117e+00	
1284	1.274960e-02	3.954068e+00	
1285	1.275960e-02	3.955019e+00	
1286	1.276960e-02	3.955968e+00	
1287	1.277960e-02	3.956917e+00	
1288	1.278960e-02	3.957865e+00	
1289	1.279960e-02	3.958812e+00	
1290	1.280960e-02	3.959758e+00	
1291	1.281960e-02	3.960703e+00	
1292	1.282960e-02	3.961647e+00	
1293	1.283960e-02	3.962591e+00	
1294	1.284960e-02	3.963534e+00	
1295	1.285960e-02	3.964475e+00	
1296	1.286960e-02	3.965416e+00	
1297	1.287960e-02	3.966356e+00	
1298	1.288960e-02	3.967296e+00	
1299	1.289960e-02	3.968234e+00	
1300	1.290960e-02	3.969172e+00	
1301	1.291960e-02	3.970108e+00	
1302	1.292960e-02	3.971044e+00	
1303	1.293960e-02	3.971979e+00	
1304	1.294960e-02	3.972913e+00	
1305	1.295960e-02	3.973847e+00	
1306	1.296960e-02	3.974779e+00	
1307	1.297960e-02	3.975711e+00	
1308	1.298960e-02	3.976641e+00	
1309	1.299960e-02	3.977571e+00	
1310	1.300960e-02	3.978500e+00	
1311	1.301960e-02	3.979429e+00	
1312	1.302960e-02	3.980356e+00	
1313	1.303960e-02	3.981282e+00	
1314	1.304960e-02	3.982208e+00	
1315	1.305960e-02	3.983133e+00	
1316	1.306960e-02	3.984057e+00	
1317	1.307960e-02	3.984980e+00	
1318	1.308960e-02	3.985902e+00	
1319	1.309960e-02	3.986824e+00	
1320	1.310960e-02	3.987745e+00	
1321	1.311960e-02	3.988664e+00	
1322	1.312960e-02	3.989583e+00	
1323	1.313960e-02	3.990502e+00	
1324	1.314960e-02	3.991419e+00	
1325	1.315960e-02	3.992335e+00	
1326	1.316960e-02	3.993251e+00	
1327	1.317960e-02	3.994166e+00	
1328	1.318960e-02	3.995080e+00	
1329	1.319960e-02	3.995993e+00	
1330	1.320960e-02	3.996905e+00	

Index   time            v(nc)           
--------------------------------------------------------------------------------
1331	1.321960e-02	3.997817e+00	
1332	1.322960e-02	3.998727e+00	
1333	1.323960e-02	3.999637e+00	
1334	1.324960e-02	4.000546e+00	
1335	1.325960e-02	4.001454e+00	
1336	1.326960e-02	4.002362e+00	
1337	1.327960e-02	4.003268e+00	
1338	1.328960e-02	4.004174e+00	
1339	1.329960e-02	4.005079e+00	
1340	1.330960e-02	4.005983e+00	
1341	1.331960e-02	4.006886e+00	
1342	1.332960e-02	4.007789e+00	
1343	1.333960e-02	4.008690e+00	
1344	1.334960e-02	4.009591e+00	
1345	1.335960e-02	4.010491e+00	
1346	1.336960e-02	4.011390e+00	
1347	1.337960e-02	4.012288e+00	
1348	1.338960e-02	4.013186e+00	
1349	1.339960e-02	4.014083e+00	
1350	1.340960e-02	4.014979e+00	
1351	1.341960e-02	4.015874e+00	
1352	1.342960e-02	4.016768e+00	
1353	1.343960e-02	4.017661e+00	
1354	1.344960e-02	4.018554e+00	
1355	1.345960e-02	4.019446e+00	
1356	1.346960e-02	4.020337e+00	
1357	1.347960e-02	4.021227e+00	
1358	1.348960e-02	4.022116e+00	
1359	1.349960e-02	4.023005e+00	
1360	1.350960e-02	4.023893e+00	
1361	1.351960e-02	4.024780e+00	
1362	1.352960e-02	4.025666e+00	
1363	1.353960e-02	4.026551e+00	
1364	1.354960e-02	4.027436e+00	
1365	1.355960e-02	4.028319e+00	
1366	1.356960e-02	4.029202e+00	
1367	1.357960e-02	4.030085e+00	
1368	1.358960e-02	4.030966e+00	
1369	1.359960e-02	4.031846e+00	
1370	1.360960e-02	4.032726e+00	
1371	1.361960e-02	4.033605e+00	
1372	1.362960e-02	4.034483e+00	
1373	1.363960e-02	4.035361e+00	
1374	1.364960e-02	4.036237e+00	
1375	1.365960e-02	4.037113e+00	
1376	1.366960e-02	4.037988e+00	
1377	1.367960e-02	4.038862e+00	
1378	1.368960e-02	4.039735e+00	
1379	1.369960e-02	4.040608e+00	
1380	1.370960e-02	4.041480e+00	
1381	1.371960e-02	4.042351e+00	
1382	1.372960e-02	4.043221e+00	
1383	1.373960e-02	4.044090e+00	
1384	1.374960e-02	4.044959e+00	
1385	1.375960e-02	4.045827e+00	
1386	1.376960e-02	4.046694e+00	
1387	1.377960e-02	4.047560e+00	
1388	1.378960e-02	4.048425e+00	

Index   time            v(nc)           
--------------------------------------------------------------------------------
1389	1.379960e-02	4.049290e+00	
1390	1.380960e-02	4.050154e+00	
1391	1.381960e-02	4.051017e+00	
1392	1.382960e-02	4.051879e+00	
1393	1.383960e-02	4.052741e+00	
1394	1.384960e-02	4.053602e+00	
1395	1.385960e-02	4.054462e+00	
1396	1.386960e-02	4.055321e+00	
1397	1.387960e-02	4.056179e+00	
1398	1.388960e-02	4.057037e+00	
1399	1.389960e-02	4.057894e+00	
1400	1.390960e-02	4.058750e+00	
1401	1.391960e-02	4.059605e+00	
1402	1.392960e-02	4.060460e+00	
1403	1.393960e-02	4.061313e+00	
1404	1.394960e-02	4.062166e+00	
1405	1.395960e-02	4.063019e+00	
1406	1.396960e-02	4.063870e+00	
1407	1.397960e-02	4.064721e+00	
1408	1.398960e-02	4.065571e+00	
1409	1.399960e-02	4.066420e+00	
1410	1.400960e-02	4.067268e+00	
1411	1.401960e-02	4.068115e+00	
1412	1.402960e-02	4.068962e+00	
1413	1.403960e-02	4.069808e+00	
1414	1.404960e-02	4.070654e+00	
1415	1.405960e-02	4.071498e+00	
1416	1.406960e-02	4.072342e+00	
1417	1.407960e-02	4.073185e+00	
1418	1.408960e-02	4.074027e+00	
1419	1.409960e-02	4.074868e+00	
1420	1.410960e-02	4.075709e+00	
1421	1.411960e-02	4.076549e+00	
1422	1.412960e-02	4.077388e+00	
1423	1.413960e-02	4.078226e+00	
1424	1.414960e-02	4.079064e+00	
1425	1.415960e-02	4.079901e+00	
1426	1.416960e-02	4.080737e+00	
1427	1.417960e-02	4.081572e+00	
1428	1.418960e-02	4.082407e+00	
1429	1.419960e-02	4.083240e+00	
1430	1.420960e-02	4.084073e+00	
1431	1.421960e-02	4.084906e+00	
1432	1.422960e-02	4.085737e+00	
1433	1.423960e-02	4.086568e+00	
1434	1.424960e-02	4.087398e+00	
1435	1.425960e-02	4.088227e+00	
1436	1.426960e-02	4.089056e+00	
1437	1.427960e-02	4.089884e+00	
1438	1.428960e-02	4.090711e+00	
1439	1.429960e-02	4.091537e+00	
1440	1.430960e-02	4.092362e+00	
1441	1.431960e-02	4.093187e+00	
1442	1.432960e-02	4.094011e+00	
1443	1.433960e-02	4.094834e+00	
1444	1.434960e-02	4.095657e+00	
1445	1.435960e-02	4.096479e+00	
1446	1.436960e-02	4.097300e+00	

Index   time            v(nc)           
--------------------------------------------------------------------------------
1447	1.437960e-02	4.098120e+00	
1448	1.438960e-02	4.098939e+00	
1449	1.439960e-02	4.099758e+00	
1450	1.440960e-02	4.100576e+00	
1451	1.441960e-02	4.101393e+00	
1452	1.442960e-02	4.102210e+00	
1453	1.443960e-02	4.103026e+00	
1454	1.444960e-02	4.103841e+00	
1455	1.445960e-02	4.104655e+00	
1456	1.446960e-02	4.105469e+00	
1457	1.447960e-02	4.106282e+00	
1458	1.448960e-02	4.107094e+00	
1459	1.449960e-02	4.107905e+00	
1460	1.450960e-02	4.108716e+00	
1461	1.451960e-02	4.109526e+00	
1462	1.452960e-02	4.110335e+00	
1463	1.453960e-02	4.111143e+00	
1464	1.454960e-02	4.111951e+00	
1465	1.455960e-02	4.112758e+00	
1466	1.456960e-02	4.113564e+00	
1467	1.457960e-02	4.114370e+00	
1468	1.458960e-02	4.115174e+00	
1469	1.459960e-02	4.115978e+00	
1470	1.460960e-02	4.116782e+00	
1471	1.461960e-02	4.117584e+00	
1472	1.462960e-02	4.118386e+00	
1473	1.463960e-02	4.119187e+00	
1474	1.464960e-02	4.119987e+00	
1475	1.465960e-02	4.120787e+00	
1476	1.466960e-02	4.121586e+00	
1477	1.467960e-02	4.122384e+00	
1478	1.468960e-02	4.123182e+00	
1479	1.469960e-02	4.123978e+00	
1480	1.470960e-02	4.124774e+00	
1481	1.471960e-02	4.125570e+00	
1482	1.472960e-02	4.126364e+00	
1483	1.473960e-02	4.127158e+00	
1484	1.474960e-02	4.127951e+00	
1485	1.475960e-02	4.128744e+00	
1486	1.476960e-02	4.129535e+00	
1487	1.477960e-02	4.130326e+00	
1488	1.478960e-02	4.131117e+00	
1489	1.479960e-02	4.131906e+00	
1490	1.480960e-02	4.132695e+00	
1491	1.481960e-02	4.133483e+00	
1492	1.482960e-02	4.134270e+00	
1493	1.483960e-02	4.135057e+00	
1494	1.484960e-02	4.135843e+00	
1495	1.485960e-02	4.136628e+00	
1496	1.486960e-02	4.137413e+00	
1497	1.487960e-02	4.138197e+00	
1498	1.488960e-02	4.138980e+00	
1499	1.489960e-02	4.139762e+00	
1500	1.490960e-02	4.140544e+00	
1501	1.491960e-02	4.141325e+00	
1502	1.492960e-02	4.142105e+00	
1503	1.493960e-02	4.142885e+00	
1504	1.494960e-02	4.143663e+00	

Index   time            v(nc)           
--------------------------------------------------------------------------------
1505	1.495960e-02	4.144442e+00	
1506	1.496960e-02	4.145219e+00	
1507	1.497960e-02	4.145996e+00	
1508	1.498960e-02	4.146772e+00	
1509	1.499960e-02	4.147547e+00	
1510	1.500000e-02	4.147578e+00	


Total analysis time (seconds) = 0.007

Total elapsed time (seconds) = 0.057 

Total DRAM available = 32452.422 MB.
DRAM currently available = 12861.680 MB.
Maximum ngspice program size =   14.219 MB.
Current ngspice program size =   14.219 MB.

