
Note: No compatibility mode selected!


Circuit: * 555 discharge phase: cap discharges from 2*vcc/3 to 0 via rb

Doing analysis at TEMP = 27.000000 and TNOM = 27.000000

Using transient initial conditions

No. of Data Rows : 1511
         * 555 discharge phase: cap discharges from 2*vcc/3 to 0 via rb
         Transient Analysis  Fri Mar 27 20:39:05  2026
--------------------------------------------------------------------------------
Index   time            v(nc)           
--------------------------------------------------------------------------------
0	1.000000e-07	3.333267e+00	
1	2.000000e-07	3.333233e+00	
2	4.000000e-07	3.333167e+00	
3	8.000000e-07	3.333033e+00	
4	1.600000e-06	3.332767e+00	
5	3.200000e-06	3.332234e+00	
6	6.400000e-06	3.331167e+00	
7	1.000000e-05	3.329968e+00	
8	1.064000e-05	3.329755e+00	
9	1.192000e-05	3.329329e+00	
10	1.448000e-05	3.328477e+00	
11	1.960000e-05	3.326773e+00	
12	2.960000e-05	3.323448e+00	
13	3.960000e-05	3.320126e+00	
14	4.960000e-05	3.316808e+00	
15	5.960000e-05	3.313493e+00	
16	6.960000e-05	3.310181e+00	
17	7.960000e-05	3.306872e+00	
18	8.960000e-05	3.303567e+00	
19	9.960000e-05	3.300265e+00	
20	1.096000e-04	3.296967e+00	
21	1.196000e-04	3.293671e+00	
22	1.296000e-04	3.290379e+00	
23	1.396000e-04	3.287090e+00	
24	1.496000e-04	3.283805e+00	
25	1.596000e-04	3.280523e+00	
26	1.696000e-04	3.277244e+00	
27	1.796000e-04	3.273968e+00	
28	1.896000e-04	3.270696e+00	
29	1.996000e-04	3.267427e+00	
30	2.096000e-04	3.264161e+00	
31	2.196000e-04	3.260899e+00	
32	2.296000e-04	3.257639e+00	
33	2.396000e-04	3.254383e+00	
34	2.496000e-04	3.251131e+00	
35	2.596000e-04	3.247881e+00	
36	2.696000e-04	3.244635e+00	
37	2.796000e-04	3.241392e+00	
38	2.896000e-04	3.238152e+00	
39	2.996000e-04	3.234915e+00	
40	3.096000e-04	3.231682e+00	
41	3.196000e-04	3.228452e+00	
42	3.296000e-04	3.225225e+00	
43	3.396000e-04	3.222002e+00	
44	3.496000e-04	3.218781e+00	
45	3.596000e-04	3.215564e+00	
46	3.696000e-04	3.212350e+00	
47	3.796000e-04	3.209139e+00	
48	3.896000e-04	3.205932e+00	
49	3.996000e-04	3.202728e+00	
50	4.096000e-04	3.199526e+00	
51	4.196000e-04	3.196328e+00	
52	4.296000e-04	3.193134e+00	
53	4.396000e-04	3.189942e+00	
54	4.496000e-04	3.186754e+00	

Index   time            v(nc)           
--------------------------------------------------------------------------------
55	4.596000e-04	3.183569e+00	
56	4.696000e-04	3.180387e+00	
57	4.796000e-04	3.177208e+00	
58	4.896000e-04	3.174032e+00	
59	4.996000e-04	3.170860e+00	
60	5.096000e-04	3.167691e+00	
61	5.196000e-04	3.164524e+00	
62	5.296000e-04	3.161362e+00	
63	5.396000e-04	3.158202e+00	
64	5.496000e-04	3.155045e+00	
65	5.596000e-04	3.151892e+00	
66	5.696000e-04	3.148741e+00	
67	5.796000e-04	3.145594e+00	
68	5.896000e-04	3.142450e+00	
69	5.996000e-04	3.139309e+00	
70	6.096000e-04	3.136172e+00	
71	6.196000e-04	3.133037e+00	
72	6.296000e-04	3.129905e+00	
73	6.396000e-04	3.126777e+00	
74	6.496000e-04	3.123652e+00	
75	6.596000e-04	3.120530e+00	
76	6.696000e-04	3.117411e+00	
77	6.796000e-04	3.114295e+00	
78	6.896000e-04	3.111182e+00	
79	6.996000e-04	3.108073e+00	
80	7.096000e-04	3.104966e+00	
81	7.196000e-04	3.101863e+00	
82	7.296000e-04	3.098762e+00	
83	7.396000e-04	3.095665e+00	
84	7.496000e-04	3.092571e+00	
85	7.596000e-04	3.089480e+00	
86	7.696000e-04	3.086392e+00	
87	7.796000e-04	3.083307e+00	
88	7.896000e-04	3.080225e+00	
89	7.996000e-04	3.077147e+00	
90	8.096000e-04	3.074071e+00	
91	8.196000e-04	3.070999e+00	
92	8.296000e-04	3.067929e+00	
93	8.396000e-04	3.064863e+00	
94	8.496000e-04	3.061799e+00	
95	8.596000e-04	3.058739e+00	
96	8.696000e-04	3.055682e+00	
97	8.796000e-04	3.052628e+00	
98	8.896000e-04	3.049577e+00	
99	8.996000e-04	3.046529e+00	
100	9.096000e-04	3.043484e+00	
101	9.196000e-04	3.040442e+00	
102	9.296000e-04	3.037403e+00	
103	9.396000e-04	3.034367e+00	
104	9.496000e-04	3.031334e+00	
105	9.596000e-04	3.028304e+00	
106	9.696000e-04	3.025277e+00	
107	9.796000e-04	3.022254e+00	
108	9.896000e-04	3.019233e+00	
109	9.996000e-04	3.016215e+00	
110	1.009600e-03	3.013200e+00	
111	1.019600e-03	3.010189e+00	
112	1.029600e-03	3.007180e+00	

Index   time            v(nc)           
--------------------------------------------------------------------------------
113	1.039600e-03	3.004174e+00	
114	1.049600e-03	3.001172e+00	
115	1.059600e-03	2.998172e+00	
116	1.069600e-03	2.995175e+00	
117	1.079600e-03	2.992182e+00	
118	1.089600e-03	2.989191e+00	
119	1.099600e-03	2.986203e+00	
120	1.109600e-03	2.983219e+00	
121	1.119600e-03	2.980237e+00	
122	1.129600e-03	2.977258e+00	
123	1.139600e-03	2.974282e+00	
124	1.149600e-03	2.971310e+00	
125	1.159600e-03	2.968340e+00	
126	1.169600e-03	2.965373e+00	
127	1.179600e-03	2.962409e+00	
128	1.189600e-03	2.959448e+00	
129	1.199600e-03	2.956490e+00	
130	1.209600e-03	2.953535e+00	
131	1.219600e-03	2.950583e+00	
132	1.229600e-03	2.947634e+00	
133	1.239600e-03	2.944688e+00	
134	1.249600e-03	2.941745e+00	
135	1.259600e-03	2.938804e+00	
136	1.269600e-03	2.935867e+00	
137	1.279600e-03	2.932933e+00	
138	1.289600e-03	2.930001e+00	
139	1.299600e-03	2.927073e+00	
140	1.309600e-03	2.924147e+00	
141	1.319600e-03	2.921224e+00	
142	1.329600e-03	2.918304e+00	
143	1.339600e-03	2.915388e+00	
144	1.349600e-03	2.912474e+00	
145	1.359600e-03	2.909563e+00	
146	1.369600e-03	2.906655e+00	
147	1.379600e-03	2.903749e+00	
148	1.389600e-03	2.900847e+00	
149	1.399600e-03	2.897948e+00	
150	1.409600e-03	2.895051e+00	
151	1.419600e-03	2.892158e+00	
152	1.429600e-03	2.889267e+00	
153	1.439600e-03	2.886379e+00	
154	1.449600e-03	2.883494e+00	
155	1.459600e-03	2.880612e+00	
156	1.469600e-03	2.877733e+00	
157	1.479600e-03	2.874857e+00	
158	1.489600e-03	2.871983e+00	
159	1.499600e-03	2.869113e+00	
160	1.509600e-03	2.866245e+00	
161	1.519600e-03	2.863380e+00	
162	1.529600e-03	2.860518e+00	
163	1.539600e-03	2.857659e+00	
164	1.549600e-03	2.854803e+00	
165	1.559600e-03	2.851949e+00	
166	1.569600e-03	2.849099e+00	
167	1.579600e-03	2.846251e+00	
168	1.589600e-03	2.843406e+00	
169	1.599600e-03	2.840564e+00	
170	1.609600e-03	2.837725e+00	

Index   time            v(nc)           
--------------------------------------------------------------------------------
171	1.619600e-03	2.834889e+00	
172	1.629600e-03	2.832056e+00	
173	1.639600e-03	2.829225e+00	
174	1.649600e-03	2.826397e+00	
175	1.659600e-03	2.823572e+00	
176	1.669600e-03	2.820750e+00	
177	1.679600e-03	2.817931e+00	
178	1.689600e-03	2.815114e+00	
179	1.699600e-03	2.812300e+00	
180	1.709600e-03	2.809489e+00	
181	1.719600e-03	2.806681e+00	
182	1.729600e-03	2.803876e+00	
183	1.739600e-03	2.801074e+00	
184	1.749600e-03	2.798274e+00	
185	1.759600e-03	2.795477e+00	
186	1.769600e-03	2.792683e+00	
187	1.779600e-03	2.789892e+00	
188	1.789600e-03	2.787103e+00	
189	1.799600e-03	2.784318e+00	
190	1.809600e-03	2.781535e+00	
191	1.819600e-03	2.778754e+00	
192	1.829600e-03	2.775977e+00	
193	1.839600e-03	2.773203e+00	
194	1.849600e-03	2.770431e+00	
195	1.859600e-03	2.767662e+00	
196	1.869600e-03	2.764895e+00	
197	1.879600e-03	2.762132e+00	
198	1.889600e-03	2.759371e+00	
199	1.899600e-03	2.756613e+00	
200	1.909600e-03	2.753858e+00	
201	1.919600e-03	2.751105e+00	
202	1.929600e-03	2.748356e+00	
203	1.939600e-03	2.745609e+00	
204	1.949600e-03	2.742864e+00	
205	1.959600e-03	2.740123e+00	
206	1.969600e-03	2.737384e+00	
207	1.979600e-03	2.734648e+00	
208	1.989600e-03	2.731915e+00	
209	1.999600e-03	2.729184e+00	
210	2.009600e-03	2.726457e+00	
211	2.019600e-03	2.723731e+00	
212	2.029600e-03	2.721009e+00	
213	2.039600e-03	2.718289e+00	
214	2.049600e-03	2.715572e+00	
215	2.059600e-03	2.712858e+00	
216	2.069600e-03	2.710147e+00	
217	2.079600e-03	2.707438e+00	
218	2.089600e-03	2.704732e+00	
219	2.099600e-03	2.702029e+00	
220	2.109600e-03	2.699328e+00	
221	2.119600e-03	2.696630e+00	
222	2.129600e-03	2.693935e+00	
223	2.139600e-03	2.691242e+00	
224	2.149600e-03	2.688552e+00	
225	2.159600e-03	2.685865e+00	
226	2.169600e-03	2.683180e+00	
227	2.179600e-03	2.680499e+00	
228	2.189600e-03	2.677819e+00	

Index   time            v(nc)           
--------------------------------------------------------------------------------
229	2.199600e-03	2.675143e+00	
230	2.209600e-03	2.672469e+00	
231	2.219600e-03	2.669798e+00	
232	2.229600e-03	2.667129e+00	
233	2.239600e-03	2.664464e+00	
234	2.249600e-03	2.661801e+00	
235	2.259600e-03	2.659140e+00	
236	2.269600e-03	2.656482e+00	
237	2.279600e-03	2.653827e+00	
238	2.289600e-03	2.651175e+00	
239	2.299600e-03	2.648525e+00	
240	2.309600e-03	2.645878e+00	
241	2.319600e-03	2.643233e+00	
242	2.329600e-03	2.640591e+00	
243	2.339600e-03	2.637952e+00	
244	2.349600e-03	2.635315e+00	
245	2.359600e-03	2.632681e+00	
246	2.369600e-03	2.630050e+00	
247	2.379600e-03	2.627421e+00	
248	2.389600e-03	2.624795e+00	
249	2.399600e-03	2.622171e+00	
250	2.409600e-03	2.619551e+00	
251	2.419600e-03	2.616932e+00	
252	2.429600e-03	2.614317e+00	
253	2.439600e-03	2.611704e+00	
254	2.449600e-03	2.609093e+00	
255	2.459600e-03	2.606486e+00	
256	2.469600e-03	2.603880e+00	
257	2.479600e-03	2.601278e+00	
258	2.489600e-03	2.598678e+00	
259	2.499600e-03	2.596080e+00	
260	2.509600e-03	2.593486e+00	
261	2.519600e-03	2.590893e+00	
262	2.529600e-03	2.588304e+00	
263	2.539600e-03	2.585717e+00	
264	2.549600e-03	2.583132e+00	
265	2.559600e-03	2.580551e+00	
266	2.569600e-03	2.577971e+00	
267	2.579600e-03	2.575395e+00	
268	2.589600e-03	2.572821e+00	
269	2.599600e-03	2.570249e+00	
270	2.609600e-03	2.567680e+00	
271	2.619600e-03	2.565114e+00	
272	2.629600e-03	2.562550e+00	
273	2.639600e-03	2.559989e+00	
274	2.649600e-03	2.557430e+00	
275	2.659600e-03	2.554874e+00	
276	2.669600e-03	2.552320e+00	
277	2.679600e-03	2.549769e+00	
278	2.689600e-03	2.547221e+00	
279	2.699600e-03	2.544675e+00	
280	2.709600e-03	2.542131e+00	
281	2.719600e-03	2.539590e+00	
282	2.729600e-03	2.537052e+00	
283	2.739600e-03	2.534516e+00	
284	2.749600e-03	2.531983e+00	
285	2.759600e-03	2.529452e+00	
286	2.769600e-03	2.526924e+00	

Index   time            v(nc)           
--------------------------------------------------------------------------------
287	2.779600e-03	2.524398e+00	
288	2.789600e-03	2.521875e+00	
289	2.799600e-03	2.519355e+00	
290	2.809600e-03	2.516837e+00	
291	2.819600e-03	2.514321e+00	
292	2.829600e-03	2.511808e+00	
293	2.839600e-03	2.509297e+00	
294	2.849600e-03	2.506789e+00	
295	2.859600e-03	2.504284e+00	
296	2.869600e-03	2.501781e+00	
297	2.879600e-03	2.499280e+00	
298	2.889600e-03	2.496782e+00	
299	2.899600e-03	2.494287e+00	
300	2.909600e-03	2.491794e+00	
301	2.919600e-03	2.489303e+00	
302	2.929600e-03	2.486815e+00	
303	2.939600e-03	2.484329e+00	
304	2.949600e-03	2.481846e+00	
305	2.959600e-03	2.479366e+00	
306	2.969600e-03	2.476888e+00	
307	2.979600e-03	2.474412e+00	
308	2.989600e-03	2.471939e+00	
309	2.999600e-03	2.469468e+00	
310	3.009600e-03	2.467000e+00	
311	3.019600e-03	2.464534e+00	
312	3.029600e-03	2.462071e+00	
313	3.039600e-03	2.459610e+00	
314	3.049600e-03	2.457152e+00	
315	3.059600e-03	2.454696e+00	
316	3.069600e-03	2.452242e+00	
317	3.079600e-03	2.449791e+00	
318	3.089600e-03	2.447343e+00	
319	3.099600e-03	2.444896e+00	
320	3.109600e-03	2.442453e+00	
321	3.119600e-03	2.440012e+00	
322	3.129600e-03	2.437573e+00	
323	3.139600e-03	2.435136e+00	
324	3.149600e-03	2.432703e+00	
325	3.159600e-03	2.430271e+00	
326	3.169600e-03	2.427842e+00	
327	3.179600e-03	2.425415e+00	
328	3.189600e-03	2.422991e+00	
329	3.199600e-03	2.420569e+00	
330	3.209600e-03	2.418150e+00	
331	3.219600e-03	2.415733e+00	
332	3.229600e-03	2.413319e+00	
333	3.239600e-03	2.410906e+00	
334	3.249600e-03	2.408497e+00	
335	3.259600e-03	2.406089e+00	
336	3.269600e-03	2.403685e+00	
337	3.279600e-03	2.401282e+00	
338	3.289600e-03	2.398882e+00	
339	3.299600e-03	2.396484e+00	
340	3.309600e-03	2.394089e+00	
341	3.319600e-03	2.391696e+00	
342	3.329600e-03	2.389306e+00	
343	3.339600e-03	2.386917e+00	
344	3.349600e-03	2.384532e+00	

Index   time            v(nc)           
--------------------------------------------------------------------------------
345	3.359600e-03	2.382148e+00	
346	3.369600e-03	2.379767e+00	
347	3.379600e-03	2.377389e+00	
348	3.389600e-03	2.375013e+00	
349	3.399600e-03	2.372639e+00	
350	3.409600e-03	2.370267e+00	
351	3.419600e-03	2.367898e+00	
352	3.429600e-03	2.365532e+00	
353	3.439600e-03	2.363167e+00	
354	3.449600e-03	2.360805e+00	
355	3.459600e-03	2.358446e+00	
356	3.469600e-03	2.356088e+00	
357	3.479600e-03	2.353733e+00	
358	3.489600e-03	2.351381e+00	
359	3.499600e-03	2.349031e+00	
360	3.509600e-03	2.346683e+00	
361	3.519600e-03	2.344337e+00	
362	3.529600e-03	2.341994e+00	
363	3.539600e-03	2.339653e+00	
364	3.549600e-03	2.337315e+00	
365	3.559600e-03	2.334979e+00	
366	3.569600e-03	2.332645e+00	
367	3.579600e-03	2.330313e+00	
368	3.589600e-03	2.327984e+00	
369	3.599600e-03	2.325657e+00	
370	3.609600e-03	2.323333e+00	
371	3.619600e-03	2.321011e+00	
372	3.629600e-03	2.318691e+00	
373	3.639600e-03	2.316373e+00	
374	3.649600e-03	2.314058e+00	
375	3.659600e-03	2.311745e+00	
376	3.669600e-03	2.309435e+00	
377	3.679600e-03	2.307126e+00	
378	3.689600e-03	2.304820e+00	
379	3.699600e-03	2.302517e+00	
380	3.709600e-03	2.300215e+00	
381	3.719600e-03	2.297916e+00	
382	3.729600e-03	2.295620e+00	
383	3.739600e-03	2.293325e+00	
384	3.749600e-03	2.291033e+00	
385	3.759600e-03	2.288743e+00	
386	3.769600e-03	2.286455e+00	
387	3.779600e-03	2.284170e+00	
388	3.789600e-03	2.281887e+00	
389	3.799600e-03	2.279606e+00	
390	3.809600e-03	2.277328e+00	
391	3.819600e-03	2.275052e+00	
392	3.829600e-03	2.272778e+00	
393	3.839600e-03	2.270506e+00	
394	3.849600e-03	2.268237e+00	
395	3.859600e-03	2.265970e+00	
396	3.869600e-03	2.263705e+00	
397	3.879600e-03	2.261442e+00	
398	3.889600e-03	2.259182e+00	
399	3.899600e-03	2.256924e+00	
400	3.909600e-03	2.254668e+00	
401	3.919600e-03	2.252415e+00	
402	3.929600e-03	2.250163e+00	

Index   time            v(nc)           
--------------------------------------------------------------------------------
403	3.939600e-03	2.247914e+00	
404	3.949600e-03	2.245667e+00	
405	3.959600e-03	2.243423e+00	
406	3.969600e-03	2.241181e+00	
407	3.979600e-03	2.238941e+00	
408	3.989600e-03	2.236703e+00	
409	3.999600e-03	2.234467e+00	
410	4.009600e-03	2.232234e+00	
411	4.019600e-03	2.230003e+00	
412	4.029600e-03	2.227774e+00	
413	4.039600e-03	2.225547e+00	
414	4.049600e-03	2.223323e+00	
415	4.059600e-03	2.221100e+00	
416	4.069600e-03	2.218880e+00	
417	4.079600e-03	2.216663e+00	
418	4.089600e-03	2.214447e+00	
419	4.099600e-03	2.212234e+00	
420	4.109600e-03	2.210023e+00	
421	4.119600e-03	2.207814e+00	
422	4.129600e-03	2.205607e+00	
423	4.139600e-03	2.203403e+00	
424	4.149600e-03	2.201200e+00	
425	4.159600e-03	2.199000e+00	
426	4.169600e-03	2.196802e+00	
427	4.179600e-03	2.194607e+00	
428	4.189600e-03	2.192413e+00	
429	4.199600e-03	2.190222e+00	
430	4.209600e-03	2.188033e+00	
431	4.219600e-03	2.185846e+00	
432	4.229600e-03	2.183661e+00	
433	4.239600e-03	2.181478e+00	
434	4.249600e-03	2.179298e+00	
435	4.259600e-03	2.177120e+00	
436	4.269600e-03	2.174944e+00	
437	4.279600e-03	2.172770e+00	
438	4.289600e-03	2.170598e+00	
439	4.299600e-03	2.168429e+00	
440	4.309600e-03	2.166261e+00	
441	4.319600e-03	2.164096e+00	
442	4.329600e-03	2.161933e+00	
443	4.339600e-03	2.159772e+00	
444	4.349600e-03	2.157614e+00	
445	4.359600e-03	2.155457e+00	
446	4.369600e-03	2.153303e+00	
447	4.379600e-03	2.151150e+00	
448	4.389600e-03	2.149000e+00	
449	4.399600e-03	2.146852e+00	
450	4.409600e-03	2.144707e+00	
451	4.419600e-03	2.142563e+00	
452	4.429600e-03	2.140421e+00	
453	4.439600e-03	2.138282e+00	
454	4.449600e-03	2.136145e+00	
455	4.459600e-03	2.134010e+00	
456	4.469600e-03	2.131877e+00	
457	4.479600e-03	2.129746e+00	
458	4.489600e-03	2.127617e+00	
459	4.499600e-03	2.125491e+00	
460	4.509600e-03	2.123366e+00	

Index   time            v(nc)           
--------------------------------------------------------------------------------
461	4.519600e-03	2.121244e+00	
462	4.529600e-03	2.119124e+00	
463	4.539600e-03	2.117006e+00	
464	4.549600e-03	2.114890e+00	
465	4.559600e-03	2.112776e+00	
466	4.569600e-03	2.110664e+00	
467	4.579600e-03	2.108555e+00	
468	4.589600e-03	2.106447e+00	
469	4.599600e-03	2.104342e+00	
470	4.609600e-03	2.102239e+00	
471	4.619600e-03	2.100137e+00	
472	4.629600e-03	2.098038e+00	
473	4.639600e-03	2.095941e+00	
474	4.649600e-03	2.093846e+00	
475	4.659600e-03	2.091754e+00	
476	4.669600e-03	2.089663e+00	
477	4.679600e-03	2.087574e+00	
478	4.689600e-03	2.085488e+00	
479	4.699600e-03	2.083403e+00	
480	4.709600e-03	2.081321e+00	
481	4.719600e-03	2.079241e+00	
482	4.729600e-03	2.077162e+00	
483	4.739600e-03	2.075086e+00	
484	4.749600e-03	2.073012e+00	
485	4.759600e-03	2.070940e+00	
486	4.769600e-03	2.068870e+00	
487	4.779600e-03	2.066803e+00	
488	4.789600e-03	2.064737e+00	
489	4.799600e-03	2.062673e+00	
490	4.809600e-03	2.060611e+00	
491	4.819600e-03	2.058552e+00	
492	4.829600e-03	2.056494e+00	
493	4.839600e-03	2.054439e+00	
494	4.849600e-03	2.052385e+00	
495	4.859600e-03	2.050334e+00	
496	4.869600e-03	2.048285e+00	
497	4.879600e-03	2.046238e+00	
498	4.889600e-03	2.044192e+00	
499	4.899600e-03	2.042149e+00	
500	4.909600e-03	2.040108e+00	
501	4.919600e-03	2.038069e+00	
502	4.929600e-03	2.036032e+00	
503	4.939600e-03	2.033997e+00	
504	4.949600e-03	2.031964e+00	
505	4.959600e-03	2.029933e+00	
506	4.969600e-03	2.027904e+00	
507	4.979600e-03	2.025877e+00	
508	4.989600e-03	2.023852e+00	
509	4.999600e-03	2.021829e+00	
510	5.009600e-03	2.019809e+00	
511	5.019600e-03	2.017790e+00	
512	5.029600e-03	2.015773e+00	
513	5.039600e-03	2.013758e+00	
514	5.049600e-03	2.011746e+00	
515	5.059600e-03	2.009735e+00	
516	5.069600e-03	2.007726e+00	
517	5.079600e-03	2.005719e+00	
518	5.089600e-03	2.003715e+00	

Index   time            v(nc)           
--------------------------------------------------------------------------------
519	5.099600e-03	2.001712e+00	
520	5.109600e-03	1.999711e+00	
521	5.119600e-03	1.997712e+00	
522	5.129600e-03	1.995716e+00	
523	5.139600e-03	1.993721e+00	
524	5.149600e-03	1.991728e+00	
525	5.159600e-03	1.989738e+00	
526	5.169600e-03	1.987749e+00	
527	5.179600e-03	1.985762e+00	
528	5.189600e-03	1.983777e+00	
529	5.199600e-03	1.981795e+00	
530	5.209600e-03	1.979814e+00	
531	5.219600e-03	1.977835e+00	
532	5.229600e-03	1.975858e+00	
533	5.239600e-03	1.973883e+00	
534	5.249600e-03	1.971910e+00	
535	5.259600e-03	1.969939e+00	
536	5.269600e-03	1.967970e+00	
537	5.279600e-03	1.966003e+00	
538	5.289600e-03	1.964038e+00	
539	5.299600e-03	1.962075e+00	
540	5.309600e-03	1.960114e+00	
541	5.319600e-03	1.958155e+00	
542	5.329600e-03	1.956198e+00	
543	5.339600e-03	1.954243e+00	
544	5.349600e-03	1.952289e+00	
545	5.359600e-03	1.950338e+00	
546	5.369600e-03	1.948389e+00	
547	5.379600e-03	1.946441e+00	
548	5.389600e-03	1.944496e+00	
549	5.399600e-03	1.942552e+00	
550	5.409600e-03	1.940611e+00	
551	5.419600e-03	1.938671e+00	
552	5.429600e-03	1.936733e+00	
553	5.439600e-03	1.934798e+00	
554	5.449600e-03	1.932864e+00	
555	5.459600e-03	1.930932e+00	
556	5.469600e-03	1.929002e+00	
557	5.479600e-03	1.927074e+00	
558	5.489600e-03	1.925148e+00	
559	5.499600e-03	1.923224e+00	
560	5.509600e-03	1.921301e+00	
561	5.519600e-03	1.919381e+00	
562	5.529600e-03	1.917463e+00	
563	5.539600e-03	1.915546e+00	
564	5.549600e-03	1.913632e+00	
565	5.559600e-03	1.911719e+00	
566	5.569600e-03	1.909808e+00	
567	5.579600e-03	1.907899e+00	
568	5.589600e-03	1.905992e+00	
569	5.599600e-03	1.904087e+00	
570	5.609600e-03	1.902184e+00	
571	5.619600e-03	1.900283e+00	
572	5.629600e-03	1.898384e+00	
573	5.639600e-03	1.896486e+00	
574	5.649600e-03	1.894591e+00	
575	5.659600e-03	1.892697e+00	
576	5.669600e-03	1.890805e+00	

Index   time            v(nc)           
--------------------------------------------------------------------------------
577	5.679600e-03	1.888915e+00	
578	5.689600e-03	1.887027e+00	
579	5.699600e-03	1.885141e+00	
580	5.709600e-03	1.883257e+00	
581	5.719600e-03	1.881375e+00	
582	5.729600e-03	1.879494e+00	
583	5.739600e-03	1.877616e+00	
584	5.749600e-03	1.875739e+00	
585	5.759600e-03	1.873864e+00	
586	5.769600e-03	1.871991e+00	
587	5.779600e-03	1.870120e+00	
588	5.789600e-03	1.868251e+00	
589	5.799600e-03	1.866384e+00	
590	5.809600e-03	1.864518e+00	
591	5.819600e-03	1.862655e+00	
592	5.829600e-03	1.860793e+00	
593	5.839600e-03	1.858933e+00	
594	5.849600e-03	1.857075e+00	
595	5.859600e-03	1.855219e+00	
596	5.869600e-03	1.853365e+00	
597	5.879600e-03	1.851512e+00	
598	5.889600e-03	1.849662e+00	
599	5.899600e-03	1.847813e+00	
600	5.909600e-03	1.845966e+00	
601	5.919600e-03	1.844121e+00	
602	5.929600e-03	1.842278e+00	
603	5.939600e-03	1.840436e+00	
604	5.949600e-03	1.838597e+00	
605	5.959600e-03	1.836759e+00	
606	5.969600e-03	1.834923e+00	
607	5.979600e-03	1.833089e+00	
608	5.989600e-03	1.831257e+00	
609	5.999600e-03	1.829427e+00	
610	6.009600e-03	1.827598e+00	
611	6.019600e-03	1.825772e+00	
612	6.029600e-03	1.823947e+00	
613	6.039600e-03	1.822124e+00	
614	6.049600e-03	1.820303e+00	
615	6.059600e-03	1.818483e+00	
616	6.069600e-03	1.816666e+00	
617	6.079600e-03	1.814850e+00	
618	6.089600e-03	1.813036e+00	
619	6.099600e-03	1.811224e+00	
620	6.109600e-03	1.809413e+00	
621	6.119600e-03	1.807605e+00	
622	6.129600e-03	1.805798e+00	
623	6.139600e-03	1.803993e+00	
624	6.149600e-03	1.802190e+00	
625	6.159600e-03	1.800389e+00	
626	6.169600e-03	1.798590e+00	
627	6.179600e-03	1.796792e+00	
628	6.189600e-03	1.794996e+00	
629	6.199600e-03	1.793202e+00	
630	6.209600e-03	1.791410e+00	
631	6.219600e-03	1.789619e+00	
632	6.229600e-03	1.787830e+00	
633	6.239600e-03	1.786043e+00	
634	6.249600e-03	1.784258e+00	

Index   time            v(nc)           
--------------------------------------------------------------------------------
635	6.259600e-03	1.782475e+00	
636	6.269600e-03	1.780693e+00	
637	6.279600e-03	1.778913e+00	
638	6.289600e-03	1.777135e+00	
639	6.299600e-03	1.775359e+00	
640	6.309600e-03	1.773585e+00	
641	6.319600e-03	1.771812e+00	
642	6.329600e-03	1.770041e+00	
643	6.339600e-03	1.768272e+00	
644	6.349600e-03	1.766505e+00	
645	6.359600e-03	1.764739e+00	
646	6.369600e-03	1.762975e+00	
647	6.379600e-03	1.761213e+00	
648	6.389600e-03	1.759453e+00	
649	6.399600e-03	1.757694e+00	
650	6.409600e-03	1.755937e+00	
651	6.419600e-03	1.754182e+00	
652	6.429600e-03	1.752429e+00	
653	6.439600e-03	1.750677e+00	
654	6.449600e-03	1.748928e+00	
655	6.459600e-03	1.747179e+00	
656	6.469600e-03	1.745433e+00	
657	6.479600e-03	1.743689e+00	
658	6.489600e-03	1.741946e+00	
659	6.499600e-03	1.740205e+00	
660	6.509600e-03	1.738465e+00	
661	6.519600e-03	1.736728e+00	
662	6.529600e-03	1.734992e+00	
663	6.539600e-03	1.733258e+00	
664	6.549600e-03	1.731525e+00	
665	6.559600e-03	1.729795e+00	
666	6.569600e-03	1.728066e+00	
667	6.579600e-03	1.726339e+00	
668	6.589600e-03	1.724613e+00	
669	6.599600e-03	1.722889e+00	
670	6.609600e-03	1.721167e+00	
671	6.619600e-03	1.719447e+00	
672	6.629600e-03	1.717728e+00	
673	6.639600e-03	1.716012e+00	
674	6.649600e-03	1.714296e+00	
675	6.659600e-03	1.712583e+00	
676	6.669600e-03	1.710871e+00	
677	6.679600e-03	1.709161e+00	
678	6.689600e-03	1.707453e+00	
679	6.699600e-03	1.705746e+00	
680	6.709600e-03	1.704041e+00	
681	6.719600e-03	1.702338e+00	
682	6.729600e-03	1.700637e+00	
683	6.739600e-03	1.698937e+00	
684	6.749600e-03	1.697239e+00	
685	6.759600e-03	1.695543e+00	
686	6.769600e-03	1.693848e+00	
687	6.779600e-03	1.692155e+00	
688	6.789600e-03	1.690463e+00	
689	6.799600e-03	1.688774e+00	
690	6.809600e-03	1.687086e+00	
691	6.819600e-03	1.685400e+00	
692	6.829600e-03	1.683715e+00	

Index   time            v(nc)           
--------------------------------------------------------------------------------
693	6.839600e-03	1.682032e+00	
694	6.849600e-03	1.680351e+00	
695	6.859600e-03	1.678672e+00	
696	6.869600e-03	1.676994e+00	
697	6.879600e-03	1.675318e+00	
698	6.889600e-03	1.673643e+00	
699	6.899600e-03	1.671970e+00	
700	6.909600e-03	1.670299e+00	
701	6.919600e-03	1.668630e+00	
702	6.929600e-03	1.666962e+00	
703	6.939600e-03	1.665296e+00	
704	6.949600e-03	1.663631e+00	
705	6.959600e-03	1.661969e+00	
706	6.969600e-03	1.660307e+00	
707	6.979600e-03	1.658648e+00	
708	6.989600e-03	1.656990e+00	
709	6.999600e-03	1.655334e+00	
710	7.009600e-03	1.653679e+00	
711	7.019600e-03	1.652027e+00	
712	7.029600e-03	1.650375e+00	
713	7.039600e-03	1.648726e+00	
714	7.049600e-03	1.647078e+00	
715	7.059600e-03	1.645432e+00	
716	7.069600e-03	1.643787e+00	
717	7.079600e-03	1.642144e+00	
718	7.089600e-03	1.640503e+00	
719	7.099600e-03	1.638863e+00	
720	7.109600e-03	1.637225e+00	
721	7.119600e-03	1.635589e+00	
722	7.129600e-03	1.633954e+00	
723	7.139600e-03	1.632321e+00	
724	7.149600e-03	1.630689e+00	
725	7.159600e-03	1.629059e+00	
726	7.169600e-03	1.627431e+00	
727	7.179600e-03	1.625804e+00	
728	7.189600e-03	1.624179e+00	
729	7.199600e-03	1.622556e+00	
730	7.209600e-03	1.620934e+00	
731	7.219600e-03	1.619314e+00	
732	7.229600e-03	1.617696e+00	
733	7.239600e-03	1.616079e+00	
734	7.249600e-03	1.614464e+00	
735	7.259600e-03	1.612850e+00	
736	7.269600e-03	1.611238e+00	
737	7.279600e-03	1.609627e+00	
738	7.289600e-03	1.608019e+00	
739	7.299600e-03	1.606411e+00	
740	7.309600e-03	1.604806e+00	
741	7.319600e-03	1.603202e+00	
742	7.329600e-03	1.601599e+00	
743	7.339600e-03	1.599999e+00	
744	7.349600e-03	1.598399e+00	
745	7.359600e-03	1.596802e+00	
746	7.369600e-03	1.595206e+00	
747	7.379600e-03	1.593611e+00	
748	7.389600e-03	1.592019e+00	
749	7.399600e-03	1.590427e+00	
750	7.409600e-03	1.588838e+00	

Index   time            v(nc)           
--------------------------------------------------------------------------------
751	7.419600e-03	1.587250e+00	
752	7.429600e-03	1.585663e+00	
753	7.439600e-03	1.584078e+00	
754	7.449600e-03	1.582495e+00	
755	7.459600e-03	1.580913e+00	
756	7.469600e-03	1.579333e+00	
757	7.479600e-03	1.577755e+00	
758	7.489600e-03	1.576178e+00	
759	7.499600e-03	1.574602e+00	
760	7.509600e-03	1.573029e+00	
761	7.519600e-03	1.571456e+00	
762	7.529600e-03	1.569886e+00	
763	7.539600e-03	1.568316e+00	
764	7.549600e-03	1.566749e+00	
765	7.559600e-03	1.565183e+00	
766	7.569600e-03	1.563619e+00	
767	7.579600e-03	1.562056e+00	
768	7.589600e-03	1.560494e+00	
769	7.599600e-03	1.558935e+00	
770	7.609600e-03	1.557377e+00	
771	7.619600e-03	1.555820e+00	
772	7.629600e-03	1.554265e+00	
773	7.639600e-03	1.552711e+00	
774	7.649600e-03	1.551160e+00	
775	7.659600e-03	1.549609e+00	
776	7.669600e-03	1.548060e+00	
777	7.679600e-03	1.546513e+00	
778	7.689600e-03	1.544967e+00	
779	7.699600e-03	1.543423e+00	
780	7.709600e-03	1.541880e+00	
781	7.719600e-03	1.540339e+00	
782	7.729600e-03	1.538800e+00	
783	7.739600e-03	1.537262e+00	
784	7.749600e-03	1.535725e+00	
785	7.759600e-03	1.534190e+00	
786	7.769600e-03	1.532657e+00	
787	7.779600e-03	1.531125e+00	
788	7.789600e-03	1.529595e+00	
789	7.799600e-03	1.528066e+00	
790	7.809600e-03	1.526538e+00	
791	7.819600e-03	1.525013e+00	
792	7.829600e-03	1.523488e+00	
793	7.839600e-03	1.521966e+00	
794	7.849600e-03	1.520445e+00	
795	7.859600e-03	1.518925e+00	
796	7.869600e-03	1.517407e+00	
797	7.879600e-03	1.515890e+00	
798	7.889600e-03	1.514375e+00	
799	7.899600e-03	1.512861e+00	
800	7.909600e-03	1.511349e+00	
801	7.919600e-03	1.509839e+00	
802	7.929600e-03	1.508329e+00	
803	7.939600e-03	1.506822e+00	
804	7.949600e-03	1.505316e+00	
805	7.959600e-03	1.503811e+00	
806	7.969600e-03	1.502308e+00	
807	7.979600e-03	1.500807e+00	
808	7.989600e-03	1.499307e+00	

Index   time            v(nc)           
--------------------------------------------------------------------------------
809	7.999600e-03	1.497808e+00	
810	8.009600e-03	1.496311e+00	
811	8.019600e-03	1.494815e+00	
812	8.029600e-03	1.493321e+00	
813	8.039600e-03	1.491829e+00	
814	8.049600e-03	1.490338e+00	
815	8.059600e-03	1.488848e+00	
816	8.069600e-03	1.487360e+00	
817	8.079600e-03	1.485873e+00	
818	8.089600e-03	1.484388e+00	
819	8.099600e-03	1.482905e+00	
820	8.109600e-03	1.481422e+00	
821	8.119600e-03	1.479942e+00	
822	8.129600e-03	1.478463e+00	
823	8.139600e-03	1.476985e+00	
824	8.149600e-03	1.475509e+00	
825	8.159600e-03	1.474034e+00	
826	8.169600e-03	1.472561e+00	
827	8.179600e-03	1.471089e+00	
828	8.189600e-03	1.469618e+00	
829	8.199600e-03	1.468149e+00	
830	8.209600e-03	1.466682e+00	
831	8.219600e-03	1.465216e+00	
832	8.229600e-03	1.463752e+00	
833	8.239600e-03	1.462289e+00	
834	8.249600e-03	1.460827e+00	
835	8.259600e-03	1.459367e+00	
836	8.269600e-03	1.457908e+00	
837	8.279600e-03	1.456451e+00	
838	8.289600e-03	1.454995e+00	
839	8.299600e-03	1.453541e+00	
840	8.309600e-03	1.452088e+00	
841	8.319600e-03	1.450637e+00	
842	8.329600e-03	1.449187e+00	
843	8.339600e-03	1.447739e+00	
844	8.349600e-03	1.446292e+00	
845	8.359600e-03	1.444846e+00	
846	8.369600e-03	1.443402e+00	
847	8.379600e-03	1.441959e+00	
848	8.389600e-03	1.440518e+00	
849	8.399600e-03	1.439078e+00	
850	8.409600e-03	1.437640e+00	
851	8.419600e-03	1.436203e+00	
852	8.429600e-03	1.434767e+00	
853	8.439600e-03	1.433333e+00	
854	8.449600e-03	1.431901e+00	
855	8.459600e-03	1.430470e+00	
856	8.469600e-03	1.429040e+00	
857	8.479600e-03	1.427611e+00	
858	8.489600e-03	1.426185e+00	
859	8.499600e-03	1.424759e+00	
860	8.509600e-03	1.423335e+00	
861	8.519600e-03	1.421912e+00	
862	8.529600e-03	1.420491e+00	
863	8.539600e-03	1.419071e+00	
864	8.549600e-03	1.417653e+00	
865	8.559600e-03	1.416236e+00	
866	8.569600e-03	1.414821e+00	

Index   time            v(nc)           
--------------------------------------------------------------------------------
867	8.579600e-03	1.413406e+00	
868	8.589600e-03	1.411994e+00	
869	8.599600e-03	1.410582e+00	
870	8.609600e-03	1.409173e+00	
871	8.619600e-03	1.407764e+00	
872	8.629600e-03	1.406357e+00	
873	8.639600e-03	1.404951e+00	
874	8.649600e-03	1.403547e+00	
875	8.659600e-03	1.402144e+00	
876	8.669600e-03	1.400743e+00	
877	8.679600e-03	1.399343e+00	
878	8.689600e-03	1.397944e+00	
879	8.699600e-03	1.396547e+00	
880	8.709600e-03	1.395151e+00	
881	8.719600e-03	1.393757e+00	
882	8.729600e-03	1.392364e+00	
883	8.739600e-03	1.390972e+00	
884	8.749600e-03	1.389582e+00	
885	8.759600e-03	1.388193e+00	
886	8.769600e-03	1.386805e+00	
887	8.779600e-03	1.385419e+00	
888	8.789600e-03	1.384034e+00	
889	8.799600e-03	1.382651e+00	
890	8.809600e-03	1.381269e+00	
891	8.819600e-03	1.379889e+00	
892	8.829600e-03	1.378509e+00	
893	8.839600e-03	1.377132e+00	
894	8.849600e-03	1.375755e+00	
895	8.859600e-03	1.374380e+00	
896	8.869600e-03	1.373006e+00	
897	8.879600e-03	1.371634e+00	
898	8.889600e-03	1.370263e+00	
899	8.899600e-03	1.368893e+00	
900	8.909600e-03	1.367525e+00	
901	8.919600e-03	1.366158e+00	
902	8.929600e-03	1.364793e+00	
903	8.939600e-03	1.363429e+00	
904	8.949600e-03	1.362066e+00	
905	8.959600e-03	1.360705e+00	
906	8.969600e-03	1.359345e+00	
907	8.979600e-03	1.357986e+00	
908	8.989600e-03	1.356629e+00	
909	8.999600e-03	1.355273e+00	
910	9.009600e-03	1.353918e+00	
911	9.019600e-03	1.352565e+00	
912	9.029600e-03	1.351213e+00	
913	9.039600e-03	1.349862e+00	
914	9.049600e-03	1.348513e+00	
915	9.059600e-03	1.347165e+00	
916	9.069600e-03	1.345819e+00	
917	9.079600e-03	1.344474e+00	
918	9.089600e-03	1.343130e+00	
919	9.099600e-03	1.341788e+00	
920	9.109600e-03	1.340446e+00	
921	9.119600e-03	1.339107e+00	
922	9.129600e-03	1.337768e+00	
923	9.139600e-03	1.336431e+00	
924	9.149600e-03	1.335095e+00	

Index   time            v(nc)           
--------------------------------------------------------------------------------
925	9.159600e-03	1.333761e+00	
926	9.169600e-03	1.332428e+00	
927	9.179600e-03	1.331096e+00	
928	9.189600e-03	1.329766e+00	
929	9.199600e-03	1.328437e+00	
930	9.209600e-03	1.327109e+00	
931	9.219600e-03	1.325782e+00	
932	9.229600e-03	1.324457e+00	
933	9.239600e-03	1.323133e+00	
934	9.249600e-03	1.321811e+00	
935	9.259600e-03	1.320490e+00	
936	9.269600e-03	1.319170e+00	
937	9.279600e-03	1.317851e+00	
938	9.289600e-03	1.316534e+00	
939	9.299600e-03	1.315218e+00	
940	9.309600e-03	1.313904e+00	
941	9.319600e-03	1.312591e+00	
942	9.329600e-03	1.311279e+00	
943	9.339600e-03	1.309968e+00	
944	9.349600e-03	1.308659e+00	
945	9.359600e-03	1.307351e+00	
946	9.369600e-03	1.306044e+00	
947	9.379600e-03	1.304739e+00	
948	9.389600e-03	1.303435e+00	
949	9.399600e-03	1.302132e+00	
950	9.409600e-03	1.300830e+00	
951	9.419600e-03	1.299530e+00	
952	9.429600e-03	1.298231e+00	
953	9.439600e-03	1.296934e+00	
954	9.449600e-03	1.295637e+00	
955	9.459600e-03	1.294342e+00	
956	9.469600e-03	1.293049e+00	
957	9.479600e-03	1.291756e+00	
958	9.489600e-03	1.290465e+00	
959	9.499600e-03	1.289175e+00	
960	9.509600e-03	1.287887e+00	
961	9.519600e-03	1.286600e+00	
962	9.529600e-03	1.285314e+00	
963	9.539600e-03	1.284029e+00	
964	9.549600e-03	1.282746e+00	
965	9.559600e-03	1.281463e+00	
966	9.569600e-03	1.280183e+00	
967	9.579600e-03	1.278903e+00	
968	9.589600e-03	1.277625e+00	
969	9.599600e-03	1.276348e+00	
970	9.609600e-03	1.275072e+00	
971	9.619600e-03	1.273798e+00	
972	9.629600e-03	1.272525e+00	
973	9.639600e-03	1.271253e+00	
974	9.649600e-03	1.269982e+00	
975	9.659600e-03	1.268713e+00	
976	9.669600e-03	1.267445e+00	
977	9.679600e-03	1.266178e+00	
978	9.689600e-03	1.264912e+00	
979	9.699600e-03	1.263648e+00	
980	9.709600e-03	1.262385e+00	
981	9.719600e-03	1.261123e+00	
982	9.729600e-03	1.259863e+00	

Index   time            v(nc)           
--------------------------------------------------------------------------------
983	9.739600e-03	1.258603e+00	
984	9.749600e-03	1.257345e+00	
985	9.759600e-03	1.256089e+00	
986	9.769600e-03	1.254833e+00	
987	9.779600e-03	1.253579e+00	
988	9.789600e-03	1.252326e+00	
989	9.799600e-03	1.251074e+00	
990	9.809600e-03	1.249824e+00	
991	9.819600e-03	1.248575e+00	
992	9.829600e-03	1.247327e+00	
993	9.839600e-03	1.246080e+00	
994	9.849600e-03	1.244835e+00	
995	9.859600e-03	1.243590e+00	
996	9.869600e-03	1.242347e+00	
997	9.879600e-03	1.241106e+00	
998	9.889600e-03	1.239865e+00	
999	9.899600e-03	1.238626e+00	
1000	9.909600e-03	1.237388e+00	
1001	9.919600e-03	1.236151e+00	
1002	9.929600e-03	1.234916e+00	
1003	9.939600e-03	1.233681e+00	
1004	9.949600e-03	1.232448e+00	
1005	9.959600e-03	1.231217e+00	
1006	9.969600e-03	1.229986e+00	
1007	9.979600e-03	1.228757e+00	
1008	9.989600e-03	1.227528e+00	
1009	9.999600e-03	1.226301e+00	
1010	1.000960e-02	1.225076e+00	
1011	1.001960e-02	1.223851e+00	
1012	1.002960e-02	1.222628e+00	
1013	1.003960e-02	1.221406e+00	
1014	1.004960e-02	1.220185e+00	
1015	1.005960e-02	1.218966e+00	
1016	1.006960e-02	1.217747e+00	
1017	1.007960e-02	1.216530e+00	
1018	1.008960e-02	1.215314e+00	
1019	1.009960e-02	1.214100e+00	
1020	1.010960e-02	1.212886e+00	
1021	1.011960e-02	1.211674e+00	
1022	1.012960e-02	1.210463e+00	
1023	1.013960e-02	1.209253e+00	
1024	1.014960e-02	1.208044e+00	
1025	1.015960e-02	1.206837e+00	
1026	1.016960e-02	1.205631e+00	
1027	1.017960e-02	1.204426e+00	
1028	1.018960e-02	1.203222e+00	
1029	1.019960e-02	1.202019e+00	
1030	1.020960e-02	1.200818e+00	
1031	1.021960e-02	1.199617e+00	
1032	1.022960e-02	1.198418e+00	
1033	1.023960e-02	1.197221e+00	
1034	1.024960e-02	1.196024e+00	
1035	1.025960e-02	1.194829e+00	
1036	1.026960e-02	1.193634e+00	
1037	1.027960e-02	1.192441e+00	
1038	1.028960e-02	1.191249e+00	
1039	1.029960e-02	1.190059e+00	
1040	1.030960e-02	1.188869e+00	

Index   time            v(nc)           
--------------------------------------------------------------------------------
1041	1.031960e-02	1.187681e+00	
1042	1.032960e-02	1.186494e+00	
1043	1.033960e-02	1.185308e+00	
1044	1.034960e-02	1.184123e+00	
1045	1.035960e-02	1.182940e+00	
1046	1.036960e-02	1.181757e+00	
1047	1.037960e-02	1.180576e+00	
1048	1.038960e-02	1.179396e+00	
1049	1.039960e-02	1.178218e+00	
1050	1.040960e-02	1.177040e+00	
1051	1.041960e-02	1.175863e+00	
1052	1.042960e-02	1.174688e+00	
1053	1.043960e-02	1.173514e+00	
1054	1.044960e-02	1.172341e+00	
1055	1.045960e-02	1.171169e+00	
1056	1.046960e-02	1.169999e+00	
1057	1.047960e-02	1.168829e+00	
1058	1.048960e-02	1.167661e+00	
1059	1.049960e-02	1.166494e+00	
1060	1.050960e-02	1.165328e+00	
1061	1.051960e-02	1.164163e+00	
1062	1.052960e-02	1.163000e+00	
1063	1.053960e-02	1.161837e+00	
1064	1.054960e-02	1.160676e+00	
1065	1.055960e-02	1.159516e+00	
1066	1.056960e-02	1.158357e+00	
1067	1.057960e-02	1.157199e+00	
1068	1.058960e-02	1.156043e+00	
1069	1.059960e-02	1.154887e+00	
1070	1.060960e-02	1.153733e+00	
1071	1.061960e-02	1.152580e+00	
1072	1.062960e-02	1.151428e+00	
1073	1.063960e-02	1.150277e+00	
1074	1.064960e-02	1.149127e+00	
1075	1.065960e-02	1.147979e+00	
1076	1.066960e-02	1.146831e+00	
1077	1.067960e-02	1.145685e+00	
1078	1.068960e-02	1.144540e+00	
1079	1.069960e-02	1.143396e+00	
1080	1.070960e-02	1.142253e+00	
1081	1.071960e-02	1.141111e+00	
1082	1.072960e-02	1.139971e+00	
1083	1.073960e-02	1.138831e+00	
1084	1.074960e-02	1.137693e+00	
1085	1.075960e-02	1.136556e+00	
1086	1.076960e-02	1.135420e+00	
1087	1.077960e-02	1.134285e+00	
1088	1.078960e-02	1.133152e+00	
1089	1.079960e-02	1.132019e+00	
1090	1.080960e-02	1.130887e+00	
1091	1.081960e-02	1.129757e+00	
1092	1.082960e-02	1.128628e+00	
1093	1.083960e-02	1.127500e+00	
1094	1.084960e-02	1.126373e+00	
1095	1.085960e-02	1.125247e+00	
1096	1.086960e-02	1.124122e+00	
1097	1.087960e-02	1.122999e+00	
1098	1.088960e-02	1.121876e+00	

Index   time            v(nc)           
--------------------------------------------------------------------------------
1099	1.089960e-02	1.120755e+00	
1100	1.090960e-02	1.119635e+00	
1101	1.091960e-02	1.118516e+00	
1102	1.092960e-02	1.117398e+00	
1103	1.093960e-02	1.116281e+00	
1104	1.094960e-02	1.115165e+00	
1105	1.095960e-02	1.114051e+00	
1106	1.096960e-02	1.112937e+00	
1107	1.097960e-02	1.111825e+00	
1108	1.098960e-02	1.110714e+00	
1109	1.099960e-02	1.109603e+00	
1110	1.100960e-02	1.108494e+00	
1111	1.101960e-02	1.107386e+00	
1112	1.102960e-02	1.106280e+00	
1113	1.103960e-02	1.105174e+00	
1114	1.104960e-02	1.104069e+00	
1115	1.105960e-02	1.102966e+00	
1116	1.106960e-02	1.101863e+00	
1117	1.107960e-02	1.100762e+00	
1118	1.108960e-02	1.099662e+00	
1119	1.109960e-02	1.098563e+00	
1120	1.110960e-02	1.097465e+00	
1121	1.111960e-02	1.096368e+00	
1122	1.112960e-02	1.095272e+00	
1123	1.113960e-02	1.094177e+00	
1124	1.114960e-02	1.093084e+00	
1125	1.115960e-02	1.091991e+00	
1126	1.116960e-02	1.090900e+00	
1127	1.117960e-02	1.089809e+00	
1128	1.118960e-02	1.088720e+00	
1129	1.119960e-02	1.087632e+00	
1130	1.120960e-02	1.086545e+00	
1131	1.121960e-02	1.085459e+00	
1132	1.122960e-02	1.084374e+00	
1133	1.123960e-02	1.083290e+00	
1134	1.124960e-02	1.082207e+00	
1135	1.125960e-02	1.081126e+00	
1136	1.126960e-02	1.080045e+00	
1137	1.127960e-02	1.078966e+00	
1138	1.128960e-02	1.077887e+00	
1139	1.129960e-02	1.076810e+00	
1140	1.130960e-02	1.075733e+00	
1141	1.131960e-02	1.074658e+00	
1142	1.132960e-02	1.073584e+00	
1143	1.133960e-02	1.072511e+00	
1144	1.134960e-02	1.071439e+00	
1145	1.135960e-02	1.070368e+00	
1146	1.136960e-02	1.069298e+00	
1147	1.137960e-02	1.068230e+00	
1148	1.138960e-02	1.067162e+00	
1149	1.139960e-02	1.066095e+00	
1150	1.140960e-02	1.065030e+00	
1151	1.141960e-02	1.063965e+00	
1152	1.142960e-02	1.062902e+00	
1153	1.143960e-02	1.061839e+00	
1154	1.144960e-02	1.060778e+00	
1155	1.145960e-02	1.059718e+00	
1156	1.146960e-02	1.058659e+00	

Index   time            v(nc)           
--------------------------------------------------------------------------------
1157	1.147960e-02	1.057601e+00	
1158	1.148960e-02	1.056543e+00	
1159	1.149960e-02	1.055487e+00	
1160	1.150960e-02	1.054433e+00	
1161	1.151960e-02	1.053379e+00	
1162	1.152960e-02	1.052326e+00	
1163	1.153960e-02	1.051274e+00	
1164	1.154960e-02	1.050223e+00	
1165	1.155960e-02	1.049173e+00	
1166	1.156960e-02	1.048125e+00	
1167	1.157960e-02	1.047077e+00	
1168	1.158960e-02	1.046031e+00	
1169	1.159960e-02	1.044985e+00	
1170	1.160960e-02	1.043941e+00	
1171	1.161960e-02	1.042897e+00	
1172	1.162960e-02	1.041855e+00	
1173	1.163960e-02	1.040814e+00	
1174	1.164960e-02	1.039773e+00	
1175	1.165960e-02	1.038734e+00	
1176	1.166960e-02	1.037696e+00	
1177	1.167960e-02	1.036659e+00	
1178	1.168960e-02	1.035623e+00	
1179	1.169960e-02	1.034587e+00	
1180	1.170960e-02	1.033553e+00	
1181	1.171960e-02	1.032520e+00	
1182	1.172960e-02	1.031488e+00	
1183	1.173960e-02	1.030457e+00	
1184	1.174960e-02	1.029427e+00	
1185	1.175960e-02	1.028398e+00	
1186	1.176960e-02	1.027371e+00	
1187	1.177960e-02	1.026344e+00	
1188	1.178960e-02	1.025318e+00	
1189	1.179960e-02	1.024293e+00	
1190	1.180960e-02	1.023269e+00	
1191	1.181960e-02	1.022247e+00	
1192	1.182960e-02	1.021225e+00	
1193	1.183960e-02	1.020204e+00	
1194	1.184960e-02	1.019184e+00	
1195	1.185960e-02	1.018166e+00	
1196	1.186960e-02	1.017148e+00	
1197	1.187960e-02	1.016131e+00	
1198	1.188960e-02	1.015116e+00	
1199	1.189960e-02	1.014101e+00	
1200	1.190960e-02	1.013088e+00	
1201	1.191960e-02	1.012075e+00	
1202	1.192960e-02	1.011063e+00	
1203	1.193960e-02	1.010053e+00	
1204	1.194960e-02	1.009043e+00	
1205	1.195960e-02	1.008035e+00	
1206	1.196960e-02	1.007027e+00	
1207	1.197960e-02	1.006021e+00	
1208	1.198960e-02	1.005015e+00	
1209	1.199960e-02	1.004011e+00	
1210	1.200960e-02	1.003007e+00	
1211	1.201960e-02	1.002005e+00	
1212	1.202960e-02	1.001003e+00	
1213	1.203960e-02	1.000003e+00	
1214	1.204960e-02	9.990032e-01	

Index   time            v(nc)           
--------------------------------------------------------------------------------
1215	1.205960e-02	9.980047e-01	
1216	1.206960e-02	9.970072e-01	
1217	1.207960e-02	9.960107e-01	
1218	1.208960e-02	9.950152e-01	
1219	1.209960e-02	9.940207e-01	
1220	1.210960e-02	9.930271e-01	
1221	1.211960e-02	9.920346e-01	
1222	1.212960e-02	9.910431e-01	
1223	1.213960e-02	9.900525e-01	
1224	1.214960e-02	9.890630e-01	
1225	1.215960e-02	9.880744e-01	
1226	1.216960e-02	9.870868e-01	
1227	1.217960e-02	9.861002e-01	
1228	1.218960e-02	9.851146e-01	
1229	1.219960e-02	9.841300e-01	
1230	1.220960e-02	9.831463e-01	
1231	1.221960e-02	9.821637e-01	
1232	1.222960e-02	9.811820e-01	
1233	1.223960e-02	9.802013e-01	
1234	1.224960e-02	9.792216e-01	
1235	1.225960e-02	9.782429e-01	
1236	1.226960e-02	9.772651e-01	
1237	1.227960e-02	9.762883e-01	
1238	1.228960e-02	9.753125e-01	
1239	1.229960e-02	9.743377e-01	
1240	1.230960e-02	9.733639e-01	
1241	1.231960e-02	9.723910e-01	
1242	1.232960e-02	9.714191e-01	
1243	1.233960e-02	9.704482e-01	
1244	1.234960e-02	9.694782e-01	
1245	1.235960e-02	9.685092e-01	
1246	1.236960e-02	9.675412e-01	
1247	1.237960e-02	9.665741e-01	
1248	1.238960e-02	9.656080e-01	
1249	1.239960e-02	9.646429e-01	
1250	1.240960e-02	9.636787e-01	
1251	1.241960e-02	9.627155e-01	
1252	1.242960e-02	9.617533e-01	
1253	1.243960e-02	9.607920e-01	
1254	1.244960e-02	9.598317e-01	
1255	1.245960e-02	9.588724e-01	
1256	1.246960e-02	9.579140e-01	
1257	1.247960e-02	9.569565e-01	
1258	1.248960e-02	9.560001e-01	
1259	1.249960e-02	9.550445e-01	
1260	1.250960e-02	9.540900e-01	
1261	1.251960e-02	9.531364e-01	
1262	1.252960e-02	9.521837e-01	
1263	1.253960e-02	9.512320e-01	
1264	1.254960e-02	9.502812e-01	
1265	1.255960e-02	9.493314e-01	
1266	1.256960e-02	9.483826e-01	
1267	1.257960e-02	9.474347e-01	
1268	1.258960e-02	9.464877e-01	
1269	1.259960e-02	9.455417e-01	
1270	1.260960e-02	9.445966e-01	
1271	1.261960e-02	9.436525e-01	
1272	1.262960e-02	9.427093e-01	

Index   time            v(nc)           
--------------------------------------------------------------------------------
1273	1.263960e-02	9.417671e-01	
1274	1.264960e-02	9.408258e-01	
1275	1.265960e-02	9.398854e-01	
1276	1.266960e-02	9.389460e-01	
1277	1.267960e-02	9.380075e-01	
1278	1.268960e-02	9.370700e-01	
1279	1.269960e-02	9.361334e-01	
1280	1.270960e-02	9.351977e-01	
1281	1.271960e-02	9.342630e-01	
1282	1.272960e-02	9.333292e-01	
1283	1.273960e-02	9.323963e-01	
1284	1.274960e-02	9.314644e-01	
1285	1.275960e-02	9.305334e-01	
1286	1.276960e-02	9.296033e-01	
1287	1.277960e-02	9.286742e-01	
1288	1.278960e-02	9.277460e-01	
1289	1.279960e-02	9.268187e-01	
1290	1.280960e-02	9.258924e-01	
1291	1.281960e-02	9.249669e-01	
1292	1.282960e-02	9.240424e-01	
1293	1.283960e-02	9.231188e-01	
1294	1.284960e-02	9.221962e-01	
1295	1.285960e-02	9.212744e-01	
1296	1.286960e-02	9.203536e-01	
1297	1.287960e-02	9.194337e-01	
1298	1.288960e-02	9.185148e-01	
1299	1.289960e-02	9.175967e-01	
1300	1.290960e-02	9.166796e-01	
1301	1.291960e-02	9.157633e-01	
1302	1.292960e-02	9.148480e-01	
1303	1.293960e-02	9.139337e-01	
1304	1.294960e-02	9.130202e-01	
1305	1.295960e-02	9.121076e-01	
1306	1.296960e-02	9.111960e-01	
1307	1.297960e-02	9.102852e-01	
1308	1.298960e-02	9.093754e-01	
1309	1.299960e-02	9.084665e-01	
1310	1.300960e-02	9.075585e-01	
1311	1.301960e-02	9.066513e-01	
1312	1.302960e-02	9.057452e-01	
1313	1.303960e-02	9.048399e-01	
1314	1.304960e-02	9.039355e-01	
1315	1.305960e-02	9.030320e-01	
1316	1.306960e-02	9.021294e-01	
1317	1.307960e-02	9.012277e-01	
1318	1.308960e-02	9.003270e-01	
1319	1.309960e-02	8.994271e-01	
1320	1.310960e-02	8.985281e-01	
1321	1.311960e-02	8.976300e-01	
1322	1.312960e-02	8.967328e-01	
1323	1.313960e-02	8.958366e-01	
1324	1.314960e-02	8.949412e-01	
1325	1.315960e-02	8.940467e-01	
1326	1.316960e-02	8.931531e-01	
1327	1.317960e-02	8.922604e-01	
1328	1.318960e-02	8.913685e-01	
1329	1.319960e-02	8.904776e-01	
1330	1.320960e-02	8.895876e-01	

Index   time            v(nc)           
--------------------------------------------------------------------------------
1331	1.321960e-02	8.886984e-01	
1332	1.322960e-02	8.878102e-01	
1333	1.323960e-02	8.869228e-01	
1334	1.324960e-02	8.860363e-01	
1335	1.325960e-02	8.851508e-01	
1336	1.326960e-02	8.842660e-01	
1337	1.327960e-02	8.833822e-01	
1338	1.328960e-02	8.824993e-01	
1339	1.329960e-02	8.816172e-01	
1340	1.330960e-02	8.807360e-01	
1341	1.331960e-02	8.798558e-01	
1342	1.332960e-02	8.789763e-01	
1343	1.333960e-02	8.780978e-01	
1344	1.334960e-02	8.772201e-01	
1345	1.335960e-02	8.763434e-01	
1346	1.336960e-02	8.754675e-01	
1347	1.337960e-02	8.745924e-01	
1348	1.338960e-02	8.737183e-01	
1349	1.339960e-02	8.728450e-01	
1350	1.340960e-02	8.719726e-01	
1351	1.341960e-02	8.711010e-01	
1352	1.342960e-02	8.702304e-01	
1353	1.343960e-02	8.693606e-01	
1354	1.344960e-02	8.684917e-01	
1355	1.345960e-02	8.676236e-01	
1356	1.346960e-02	8.667564e-01	
1357	1.347960e-02	8.658901e-01	
1358	1.348960e-02	8.650246e-01	
1359	1.349960e-02	8.641600e-01	
1360	1.350960e-02	8.632963e-01	
1361	1.351960e-02	8.624334e-01	
1362	1.352960e-02	8.615714e-01	
1363	1.353960e-02	8.607103e-01	
1364	1.354960e-02	8.598500e-01	
1365	1.355960e-02	8.589906e-01	
1366	1.356960e-02	8.581320e-01	
1367	1.357960e-02	8.572743e-01	
1368	1.358960e-02	8.564175e-01	
1369	1.359960e-02	8.555615e-01	
1370	1.360960e-02	8.547064e-01	
1371	1.361960e-02	8.538521e-01	
1372	1.362960e-02	8.529987e-01	
1373	1.363960e-02	8.521461e-01	
1374	1.364960e-02	8.512944e-01	
1375	1.365960e-02	8.504435e-01	
1376	1.366960e-02	8.495935e-01	
1377	1.367960e-02	8.487443e-01	
1378	1.368960e-02	8.478960e-01	
1379	1.369960e-02	8.470485e-01	
1380	1.370960e-02	8.462019e-01	
1381	1.371960e-02	8.453561e-01	
1382	1.372960e-02	8.445112e-01	
1383	1.373960e-02	8.436671e-01	
1384	1.374960e-02	8.428238e-01	
1385	1.375960e-02	8.419814e-01	
1386	1.376960e-02	8.411399e-01	
1387	1.377960e-02	8.402992e-01	
1388	1.378960e-02	8.394593e-01	

Index   time            v(nc)           
--------------------------------------------------------------------------------
1389	1.379960e-02	8.386202e-01	
1390	1.380960e-02	8.377820e-01	
1391	1.381960e-02	8.369447e-01	
1392	1.382960e-02	8.361081e-01	
1393	1.383960e-02	8.352725e-01	
1394	1.384960e-02	8.344376e-01	
1395	1.385960e-02	8.336036e-01	
1396	1.386960e-02	8.327704e-01	
1397	1.387960e-02	8.319380e-01	
1398	1.388960e-02	8.311065e-01	
1399	1.389960e-02	8.302758e-01	
1400	1.390960e-02	8.294460e-01	
1401	1.391960e-02	8.286169e-01	
1402	1.392960e-02	8.277887e-01	
1403	1.393960e-02	8.269614e-01	
1404	1.394960e-02	8.261348e-01	
1405	1.395960e-02	8.253091e-01	
1406	1.396960e-02	8.244842e-01	
1407	1.397960e-02	8.236601e-01	
1408	1.398960e-02	8.228369e-01	
1409	1.399960e-02	8.220144e-01	
1410	1.400960e-02	8.211928e-01	
1411	1.401960e-02	8.203721e-01	
1412	1.402960e-02	8.195521e-01	
1413	1.403960e-02	8.187330e-01	
1414	1.404960e-02	8.179146e-01	
1415	1.405960e-02	8.170971e-01	
1416	1.406960e-02	8.162804e-01	
1417	1.407960e-02	8.154646e-01	
1418	1.408960e-02	8.146495e-01	
1419	1.409960e-02	8.138353e-01	
1420	1.410960e-02	8.130218e-01	
1421	1.411960e-02	8.122092e-01	
1422	1.412960e-02	8.113974e-01	
1423	1.413960e-02	8.105864e-01	
1424	1.414960e-02	8.097762e-01	
1425	1.415960e-02	8.089669e-01	
1426	1.416960e-02	8.081583e-01	
1427	1.417960e-02	8.073506e-01	
1428	1.418960e-02	8.065436e-01	
1429	1.419960e-02	8.057375e-01	
1430	1.420960e-02	8.049321e-01	
1431	1.421960e-02	8.041276e-01	
1432	1.422960e-02	8.033239e-01	
1433	1.423960e-02	8.025210e-01	
1434	1.424960e-02	8.017188e-01	
1435	1.425960e-02	8.009175e-01	
1436	1.426960e-02	8.001170e-01	
1437	1.427960e-02	7.993173e-01	
1438	1.428960e-02	7.985184e-01	
1439	1.429960e-02	7.977202e-01	
1440	1.430960e-02	7.969229e-01	
1441	1.431960e-02	7.961264e-01	
1442	1.432960e-02	7.953307e-01	
1443	1.433960e-02	7.945357e-01	
1444	1.434960e-02	7.937416e-01	
1445	1.435960e-02	7.929483e-01	
1446	1.436960e-02	7.921557e-01	

Index   time            v(nc)           
--------------------------------------------------------------------------------
1447	1.437960e-02	7.913639e-01	
1448	1.438960e-02	7.905730e-01	
1449	1.439960e-02	7.897828e-01	
1450	1.440960e-02	7.889934e-01	
1451	1.441960e-02	7.882048e-01	
1452	1.442960e-02	7.874170e-01	
1453	1.443960e-02	7.866300e-01	
1454	1.444960e-02	7.858437e-01	
1455	1.445960e-02	7.850583e-01	
1456	1.446960e-02	7.842736e-01	
1457	1.447960e-02	7.834897e-01	
1458	1.448960e-02	7.827066e-01	
1459	1.449960e-02	7.819243e-01	
1460	1.450960e-02	7.811428e-01	
1461	1.451960e-02	7.803620e-01	
1462	1.452960e-02	7.795821e-01	
1463	1.453960e-02	7.788029e-01	
1464	1.454960e-02	7.780245e-01	
1465	1.455960e-02	7.772468e-01	
1466	1.456960e-02	7.764700e-01	
1467	1.457960e-02	7.756939e-01	
1468	1.458960e-02	7.749186e-01	
1469	1.459960e-02	7.741440e-01	
1470	1.460960e-02	7.733703e-01	
1471	1.461960e-02	7.725973e-01	
1472	1.462960e-02	7.718251e-01	
1473	1.463960e-02	7.710537e-01	
1474	1.464960e-02	7.702830e-01	
1475	1.465960e-02	7.695131e-01	
1476	1.466960e-02	7.687440e-01	
1477	1.467960e-02	7.679756e-01	
1478	1.468960e-02	7.672080e-01	
1479	1.469960e-02	7.664412e-01	
1480	1.470960e-02	7.656751e-01	
1481	1.471960e-02	7.649098e-01	
1482	1.472960e-02	7.641453e-01	
1483	1.473960e-02	7.633815e-01	
1484	1.474960e-02	7.626185e-01	
1485	1.475960e-02	7.618563e-01	
1486	1.476960e-02	7.610948e-01	
1487	1.477960e-02	7.603341e-01	
1488	1.478960e-02	7.595742e-01	
1489	1.479960e-02	7.588150e-01	
1490	1.480960e-02	7.580565e-01	
1491	1.481960e-02	7.572989e-01	
1492	1.482960e-02	7.565419e-01	
1493	1.483960e-02	7.557858e-01	
1494	1.484960e-02	7.550304e-01	
1495	1.485960e-02	7.542757e-01	
1496	1.486960e-02	7.535218e-01	
1497	1.487960e-02	7.527687e-01	
1498	1.488960e-02	7.520163e-01	
1499	1.489960e-02	7.512646e-01	
1500	1.490960e-02	7.505137e-01	
1501	1.491960e-02	7.497636e-01	
1502	1.492960e-02	7.490142e-01	
1503	1.493960e-02	7.482656e-01	
1504	1.494960e-02	7.475177e-01	

Index   time            v(nc)           
--------------------------------------------------------------------------------
1505	1.495960e-02	7.467705e-01	
1506	1.496960e-02	7.460241e-01	
1507	1.497960e-02	7.452785e-01	
1508	1.498960e-02	7.445336e-01	
1509	1.499960e-02	7.437894e-01	
1510	1.500000e-02	7.437597e-01	


Total analysis time (seconds) = 0.006

Total elapsed time (seconds) = 0.045 

Total DRAM available = 32452.422 MB.
DRAM currently available = 12873.160 MB.
Maximum ngspice program size =   15.965 MB.
Current ngspice program size =   15.965 MB.

