
Note: No compatibility mode selected!


Circuit: lrc switch damped

Doing analysis at TEMP = 27.000000 and TNOM = 27.000000

Using transient initial conditions

No. of Data Rows : 537

  Measurements for Transient Analysis


Error: measure  vc_at_500u  find(AT) : out of interval
 .meas tran vc_at_500u find v(4) at=510u failed!

vc_max              =  4.977111e+00 at=  5.000000e-04
vc_at_50u           =  1.748476e+00
vc_at_100u          =  3.144413e+00


Total analysis time (seconds) = 0.004

Total elapsed time (seconds) = 0.045 

Total DRAM available = 32452.422 MB.
DRAM currently available = 12864.055 MB.
Maximum ngspice program size =   15.957 MB.
Current ngspice program size =   15.957 MB.

