
Note: No compatibility mode selected!


Circuit: lrc switch r=100 extended

Doing analysis at TEMP = 27.000000 and TNOM = 27.000000

Using transient initial conditions

No. of Data Rows : 2036

  Measurements for Transient Analysis

vc_max              =  4.999918e+00 at=  1.000000e-03
t_vc_max            =   4.99574e-04
vc_at_tau1          =  2.892560e+00
vc_final            =  4.999909e+00


Total analysis time (seconds) = 0.009

Total elapsed time (seconds) = 0.049 

Total DRAM available = 32452.422 MB.
DRAM currently available = 12892.484 MB.
Maximum ngspice program size =   15.980 MB.
Current ngspice program size =   15.980 MB.

