
Note: No compatibility mode selected!


Circuit: spdt source selector

Doing analysis at TEMP = 27.000000 and TNOM = 27.000000

Using transient initial conditions

No. of Data Rows : 159

  Measurements for Transient Analysis

vc_v1_ss            =  2.977743e+00
vc_after_sw         =  3.455044e+00
vc_at_tau2          =  6.152430e+00
vc_v2_ss            =  7.994964e+00


Total analysis time (seconds) = 0.003

Total elapsed time (seconds) = 0.041 

Total DRAM available = 32452.422 MB.
DRAM currently available = 12910.387 MB.
Maximum ngspice program size =   15.941 MB.
Current ngspice program size =   15.941 MB.

