
Note: No compatibility mode selected!


Circuit: mosfet pwm into rlc filter

Doing analysis at TEMP = 27.000000 and TNOM = 27.000000

Using transient initial conditions

No. of Data Rows : 9892

  Measurements for Transient Analysis

vout_avg            =  9.999619e+00 from=  1.000000e-02 to=  2.000000e-02
vout_pp             =  3.682348e-04 from=  1.000000e-02 to=  2.000000e-02
vout_max            =  9.999750e+00 at=  2.000000e-02


Total analysis time (seconds) = 0.051

Total elapsed time (seconds) = 0.100 

Total DRAM available = 32452.422 MB.
DRAM currently available = 12794.508 MB.
Maximum ngspice program size =   16.168 MB.
Current ngspice program size =   16.168 MB.

