
Note: No compatibility mode selected!


Circuit: mosfet pwm 1khz below lc resonance

Doing analysis at TEMP = 27.000000 and TNOM = 27.000000

Using transient initial conditions

No. of Data Rows : 8259

  Measurements for Transient Analysis

vout_avg            =  1.200000e+01 from=  8.000000e-02 to=  1.000000e-01
vout_pp             =  1.136868e-13 from=  8.000000e-02 to=  1.000000e-01


Total analysis time (seconds) = 0.026

Total elapsed time (seconds) = 0.069 

Total DRAM available = 32452.422 MB.
DRAM currently available = 12790.070 MB.
Maximum ngspice program size =   16.168 MB.
Current ngspice program size =   16.168 MB.

