
Note: No compatibility mode selected!


Circuit: mosfet pwm with freewheeling diode

Doing analysis at TEMP = 27.000000 and TNOM = 27.000000

Using transient initial conditions

No. of Data Rows : 25362

  Measurements for Transient Analysis

vout_avg            =  1.200000e+01 from=  3.000000e-02 to=  5.000000e-02
vout_pp             =  5.266838e-08 from=  3.000000e-02 to=  5.000000e-02
vsw_avg             =  1.200000e+01 from=  3.000000e-02 to=  5.000000e-02


Total analysis time (seconds) = 0.079

Total elapsed time (seconds) = 0.122 

Total DRAM available = 32452.422 MB.
DRAM currently available = 12807.055 MB.
Maximum ngspice program size =   16.953 MB.
Current ngspice program size =   16.953 MB.

