
Note: No compatibility mode selected!


Circuit: pwm switch debug

Doing analysis at TEMP = 27.000000 and TNOM = 27.000000


Initial Transient Solution
--------------------------

Node                                   Voltage
----                                   -------
1                                           12
g                                            0
2                                  0.000119999
vgate#branch                                 0
vdd#branch                        -1.19999e-07


No. of Data Rows : 256

  Measurements for Transient Analysis

v2_at_25u           =  1.199999e+01
v2_at_75u           =  1.199988e-04
v2_at_125u          =  1.199999e+01
vg_at_25u           =  1.000000e+00
vg_at_75u           =  0.000000e+00


Total analysis time (seconds) = 0.004

Total elapsed time (seconds) = 0.043 

Total DRAM available = 32452.422 MB.
DRAM currently available = 12865.395 MB.
Maximum ngspice program size =   15.922 MB.
Current ngspice program size =   15.922 MB.

