
Note: No compatibility mode selected!


Circuit: buck pwm check v(sw_node)

Doing analysis at TEMP = 27.000000 and TNOM = 27.000000

Using transient initial conditions

No. of Data Rows : 38232

  Measurements for Transient Analysis

v2_at_25u           =  1.199989e+01
v2_at_75u           =  -4.026814e-01
v3_avg              =  5.855027e+00 from=  3.000000e-02 to=  5.000000e-02
v3_pp               =  1.192040e+01 from=  3.000000e-02 to=  5.000000e-02


Total analysis time (seconds) = 0.12

Total elapsed time (seconds) = 0.162 

Total DRAM available = 32452.422 MB.
DRAM currently available = 12881.754 MB.
Maximum ngspice program size =   17.715 MB.
Current ngspice program size =   17.715 MB.

