
Note: No compatibility mode selected!


Circuit: mosfet pwm rlc final

Doing analysis at TEMP = 27.000000 and TNOM = 27.000000

Using transient initial conditions

No. of Data Rows : 39873

  Measurements for Transient Analysis

vc_avg              =  1.200000e+01 from=  3.000000e-02 to=  5.000000e-02
vc_pp               =  5.283917e-08 from=  3.000000e-02 to=  5.000000e-02
vc_max              =  1.200000e+01 at=  3.125001e-02


Total analysis time (seconds) = 0.128

Total elapsed time (seconds) = 0.175 

Total DRAM available = 32452.422 MB.
DRAM currently available = 12693.676 MB.
Maximum ngspice program size =   16.992 MB.
Current ngspice program size =   16.992 MB.

