
Note: No compatibility mode selected!


Circuit: buck pwm clk=5v gate drive

Doing analysis at TEMP = 27.000000 and TNOM = 27.000000

Using transient initial conditions

No. of Data Rows : 46668

  Measurements for Transient Analysis

vc_avg              =  1.200000e+01 from=  3.000000e-02 to=  5.000000e-02
vc_pp               =  5.284972e-08 from=  3.000000e-02 to=  5.000000e-02
vc_at_t1            =  1.817881e+00
vc_at_t2            =  4.568049e+00


Total analysis time (seconds) = 0.145

Total elapsed time (seconds) = 0.185 

Total DRAM available = 32452.422 MB.
DRAM currently available = 13336.316 MB.
Maximum ngspice program size =   17.441 MB.
Current ngspice program size =   17.441 MB.

