
Note: No compatibility mode selected!


Circuit: buck timing check

Doing analysis at TEMP = 27.000000 and TNOM = 27.000000

Using transient initial conditions

No. of Data Rows : 46668

  Measurements for Transient Analysis

vc_1ms              =  1.185630e+01
vc_5ms              =  1.200000e+01
vc_10ms             =  1.200000e+01
vc_20ms             =  1.200000e+01
vc_30ms             =  1.200000e+01


Total analysis time (seconds) = 0.141

Total elapsed time (seconds) = 0.183 

Total DRAM available = 32452.422 MB.
DRAM currently available = 13186.836 MB.
Maximum ngspice program size =   17.438 MB.
Current ngspice program size =   17.438 MB.

