
Note: No compatibility mode selected!


Circuit: crystal oscillator long run

Doing analysis at TEMP = 27.000000 and TNOM = 27.000000

Using transient initial conditions

No. of Data Rows : 100011

  Measurements for Transient Analysis

vb_pp_early         =  2.315138e-01 from=  5.000000e-04 to=  1.000000e-03
vb_pp_mid           =  1.976498e-01 from=  2.000000e-03 to=  2.500000e-03
vb_pp_late          =  3.164779e-01 from=  4.000000e-03 to=  5.000000e-03
vc_pp_late          =  1.457603e-03 from=  4.000000e-03 to=  5.000000e-03


Total analysis time (seconds) = 0.314

Total elapsed time (seconds) = 0.356 

Total DRAM available = 32452.422 MB.
DRAM currently available = 13155.012 MB.
Maximum ngspice program size =   18.359 MB.
Current ngspice program size =   18.359 MB.

