
Note: No compatibility mode selected!


Circuit: rl circuit transient

Doing analysis at TEMP = 27.000000 and TNOM = 27.000000

Using transient initial conditions

No. of Data Rows : 224

  Measurements for Transient Analysis

v_at_tau            =  1.840491e+00
v_at_5tau           =  3.368168e-02
v_max               =  4.997501e+00 at=  1.000000e-09


Total analysis time (seconds) = 0.003

Total elapsed time (seconds) = 0.060 

Total DRAM available = 32452.422 MB.
DRAM currently available = 13011.000 MB.
Maximum ngspice program size =   15.941 MB.
Current ngspice program size =   15.941 MB.

