
Note: No compatibility mode selected!


Circuit: rlc series r=10 (q=3.162)

Doing analysis at TEMP = 27.000000 and TNOM = 27.000000


Initial Transient Solution
--------------------------

Node                                   Voltage
----                                   -------
1                                            0
2                                            0
3                                            0
l1#branch                                    0
vs#branch                                    0


No. of Data Rows : 20014

  Measurements for Transient Analysis

v_c_ss_peak         =  3.161964e+00 at=  1.818003e-02
v_lc_ss_pp          =  6.323926e+00 from=  1.800000e-02 to=  2.000000e-02


Total analysis time (seconds) = 0.074

Total elapsed time (seconds) = 0.109 

Total DRAM available = 32452.422 MB.
DRAM currently available = 12837.141 MB.
Maximum ngspice program size =   16.277 MB.
Current ngspice program size =   16.277 MB.

