
Note: No compatibility mode selected!


Circuit: rlc series resonance steady state

Doing analysis at TEMP = 27.000000 and TNOM = 27.000000


Initial Transient Solution
--------------------------

Node                                   Voltage
----                                   -------
1                                            0
2                                            0
3                                            0
l1#branch                                    0
vs#branch                                    0


No. of Data Rows : 20014

  Measurements for Transient Analysis

v_c_ss_peak         =  3.161964e-01 at=  1.877607e-02
v_lc_ss_pp          =  6.323928e-01 from=  1.800000e-02 to=  2.000000e-02
v_l_ss_peak         =  6.261025e-05 at=  1.847807e-02


Total analysis time (seconds) = 0.074

Total elapsed time (seconds) = 0.113 

Total DRAM available = 32452.422 MB.
DRAM currently available = 12895.617 MB.
Maximum ngspice program size =   16.465 MB.
Current ngspice program size =   16.465 MB.

