
Note: No compatibility mode selected!

warning, can't find model 'rbig' from line
    rscr a 0 rbig

Circuit: * scr behavioral model: fires when vg>0.7v and v(a)>1v, then stays on

Doing analysis at TEMP = 27.000000 and TNOM = 27.000000


Initial Transient Solution
--------------------------

Node                                   Voltage
----                                   -------
vcc                                         12
a                                      11.9976
gsrc                                         0
g                                            0
st                                           0
nd_k                                   11.9976
bst#branch                                   0
vgate#branch                                 0
vcc#branch                        -2.39952e-06

doAnalyses: TRAN:  Timestep too small; time = 0.000502333, timestep = 2.5e-17: trouble with swscr-instance sscr


run simulation(s) aborted
     * scr behavioral model: fires when vg>0.7v and v(a)>1v, then stays on
     Transient Analysis  Fri Mar 27 20:47:27  2026
--------------------------------------------------------------------------------
Index   time            v(a)            v(g)            v(st)           
--------------------------------------------------------------------------------
0	0.000000e+00	1.199760e+01	0.000000e+00	0.000000e+00	
1	2.000000e-07	1.199760e+01	0.000000e+00	0.000000e+00	
2	4.000000e-07	1.199760e+01	0.000000e+00	0.000000e+00	
3	8.000000e-07	1.199760e+01	0.000000e+00	0.000000e+00	
4	1.600000e-06	1.199760e+01	0.000000e+00	0.000000e+00	
5	3.200000e-06	1.199760e+01	0.000000e+00	0.000000e+00	
6	6.400000e-06	1.199760e+01	0.000000e+00	0.000000e+00	
7	1.280000e-05	1.199760e+01	0.000000e+00	0.000000e+00	
8	2.560000e-05	1.199760e+01	0.000000e+00	0.000000e+00	
9	4.560000e-05	1.199760e+01	0.000000e+00	0.000000e+00	
10	6.560000e-05	1.199760e+01	0.000000e+00	0.000000e+00	
11	8.560000e-05	1.199760e+01	0.000000e+00	0.000000e+00	
12	1.056000e-04	1.199760e+01	0.000000e+00	0.000000e+00	
13	1.256000e-04	1.199760e+01	0.000000e+00	0.000000e+00	
14	1.456000e-04	1.199760e+01	0.000000e+00	0.000000e+00	
15	1.656000e-04	1.199760e+01	0.000000e+00	0.000000e+00	
16	1.856000e-04	1.199760e+01	0.000000e+00	0.000000e+00	
17	2.056000e-04	1.199760e+01	0.000000e+00	0.000000e+00	
18	2.256000e-04	1.199760e+01	0.000000e+00	0.000000e+00	
19	2.456000e-04	1.199760e+01	0.000000e+00	0.000000e+00	
20	2.656000e-04	1.199760e+01	0.000000e+00	0.000000e+00	
21	2.856000e-04	1.199760e+01	0.000000e+00	0.000000e+00	
22	3.056000e-04	1.199760e+01	0.000000e+00	0.000000e+00	
23	3.256000e-04	1.199760e+01	0.000000e+00	0.000000e+00	
24	3.456000e-04	1.199760e+01	0.000000e+00	0.000000e+00	
25	3.656000e-04	1.199760e+01	0.000000e+00	0.000000e+00	
26	3.856000e-04	1.199760e+01	0.000000e+00	0.000000e+00	
27	4.056000e-04	1.199760e+01	0.000000e+00	0.000000e+00	
28	4.256000e-04	1.199760e+01	0.000000e+00	0.000000e+00	
29	4.456000e-04	1.199760e+01	0.000000e+00	0.000000e+00	
30	4.656000e-04	1.199760e+01	0.000000e+00	0.000000e+00	
31	4.856000e-04	1.199760e+01	0.000000e+00	0.000000e+00	
32	5.000000e-04	1.199760e+01	0.000000e+00	0.000000e+00	
33	5.010000e-04	1.199760e+01	3.000000e-01	0.000000e+00	
34	5.012500e-04	1.199760e+01	3.750000e-01	0.000000e+00	
35	5.017500e-04	1.199760e+01	5.250000e-01	0.000000e+00	
36	5.018750e-04	1.199760e+01	5.625000e-01	0.000000e+00	
37	5.021250e-04	1.199760e+01	6.375000e-01	0.000000e+00	
38	5.021875e-04	1.199760e+01	6.562500e-01	0.000000e+00	
39	5.023125e-04	1.199760e+01	6.937500e-01	0.000000e+00	
40	5.023164e-04	1.199760e+01	6.949219e-01	0.000000e+00	
41	5.023242e-04	1.199760e+01	6.972656e-01	0.000000e+00	
42	5.023262e-04	1.199760e+01	6.978516e-01	0.000000e+00	
43	5.023301e-04	1.199760e+01	6.990234e-01	0.000000e+00	
44	5.023311e-04	1.199760e+01	6.993164e-01	0.000000e+00	
45	5.023330e-04	1.199760e+01	6.999023e-01	0.000000e+00	
46	5.023331e-04	1.199760e+01	6.999207e-01	0.000000e+00	
47	5.023332e-04	1.199760e+01	6.999573e-01	0.000000e+00	
48	5.023332e-04	1.199760e+01	6.999664e-01	0.000000e+00	
49	5.023333e-04	1.199760e+01	6.999847e-01	0.000000e+00	
50	5.023333e-04	1.199760e+01	6.999893e-01	0.000000e+00	
51	5.023333e-04	1.199760e+01	6.999985e-01	0.000000e+00	
52	5.023333e-04	1.199760e+01	6.999988e-01	0.000000e+00	
53	5.023333e-04	1.199760e+01	6.999993e-01	0.000000e+00	
54	5.023333e-04	1.199760e+01	6.999995e-01	0.000000e+00	

Index   time            v(a)            v(g)            v(st)           
--------------------------------------------------------------------------------
55	5.023333e-04	1.199760e+01	6.999998e-01	0.000000e+00	
56	5.023333e-04	1.199760e+01	6.999998e-01	0.000000e+00	
57	5.023333e-04	1.199760e+01	7.000000e-01	0.000000e+00	
58	5.023333e-04	1.199760e+01	7.000000e-01	0.000000e+00	
59	5.023333e-04	1.199760e+01	7.000000e-01	0.000000e+00	
60	5.023333e-04	1.199760e+01	7.000000e-01	0.000000e+00	
61	5.023333e-04	1.199760e+01	7.000000e-01	0.000000e+00	
62	5.023333e-04	1.199760e+01	7.000000e-01	0.000000e+00	
63	5.023333e-04	1.199760e+01	7.000000e-01	0.000000e+00	
64	5.023333e-04	1.199760e+01	7.000000e-01	0.000000e+00	
65	5.023333e-04	1.199760e+01	7.000000e-01	0.000000e+00	
66	5.023333e-04	1.199760e+01	7.000000e-01	0.000000e+00	
67	5.023333e-04	1.199760e+01	7.000000e-01	0.000000e+00	


Total analysis time (seconds) = 0.004

Total elapsed time (seconds) = 0.053 

Total DRAM available = 32452.422 MB.
DRAM currently available = 13263.609 MB.
Maximum ngspice program size =   16.023 MB.
Current ngspice program size =   16.023 MB.

