
Note: No compatibility mode selected!


Circuit: * scr forced on state: model as 2xvbe diode stack

Doing analysis at TEMP = 27.000000 and TNOM = 27.000000


No. of Data Rows : 1
	Node                                  Voltage
	----                                  -------
	----	-------
	nd1                              6.082965e-01
	a                                1.216593e+00
	vcc                              1.200000e+01

	Source	Current
	------	-------

	vcc#branch                       -1.07834e-02

 Diode models (Junction Diode model)
      model                  dmod

      level                     1
         is                 1e-12
        jsw                     0
         rs                     1
        trs                     0
       trs2                     0
          n                     1
         ns                     1
         tt                     0
       ttt1                     0
       ttt2                     0
        cjo                     0
         vj                     1
          m                   0.5
        tm1                     0
        tm2                     0
        cjp                     0
        php                     1
       mjsw                  0.33
        ikf                     0
        ikr                     0
        nbv                     1
       area                     1
         pj                     0
       tlev                     0
      tlevc                     0
         eg                  1.11
        xti                     3
        cta                     0
        ctp                     0
        tpb                     0
       tphp                     0
       jtun                     0
     jtunsw                     0
       ntun                    30
     xtitun                     3
        keg                     1
         kf                     0
         af                     1
         fc                   0.5
        fcs                   0.5
         bv                     0
        ibv                 0.001
        tcv                     0
        isr                 1e-14
         nr                     2
     fv_max                 1e+99
     bv_max                 1e+99
     id_max                 1e+99
     te_max                 1e+99
     pd_max                 1e+99
       rth0                     0
       cth0                 1e-05
         lm                     0
         lp                     0
         wm                     0
         wp                     0
        xom                 1e-06
        xoi                 1e-06
         xm                     0
         xp                     0

 Resistor models (Simple linear resistor)
      model                     R

        rsh                     0
     narrow                     0
      short                     0
        tc1                     0
        tc2                     0
        tce                     0
       defw                 1e-05
          l                 1e-05
         kf                     0
         af                     0
          r                     0
     bv_max                 1e+99
         lf                     1
         wf                     1
         ef                     1

 Diode: Junction Diode model
     device                    d2                    d1
      model                  dmod                  dmod
    thermal                     0                     0
         vd              0.597513              0.597513
         id             0.0107836             0.0107836
         gd              0.416922              0.416922
         cd                     0                     0

 Resistor: Simple linear resistor
     device                    r1
      model                     R
 resistance                  1000
         ac                  1000
      dtemp                     0
     bv_max                 1e+99
      noisy                     1
          i             0.0107834
          p              0.116282

 Vsource: Independent voltage source
     device                   vcc
         dc                    12
      acmag                     0
      pulse         -
        sin         -
        exp         -
        pwl         -
       sffm         -
         am         -
    trnoise         -
   trrandom         -
    portnum                     0
         z0                     0
        pwr                     0
       freq                     0
      phase                     0
          i            -0.0107834
          p             -0.129401


Total analysis time (seconds) = 0.002

Total elapsed time (seconds) = 0.044 

Total DRAM available = 32452.422 MB.
DRAM currently available = 13273.359 MB.
Maximum ngspice program size =   15.941 MB.
Current ngspice program size =   15.941 MB.

