
Note: No compatibility mode selected!


Circuit: * probe

Doing analysis at TEMP = 27.000000 and TNOM = 27.000000


No. of Data Rows : 1
