
Note: No compatibility mode selected!


Circuit: t10 analog switch off

Doing analysis at TEMP = 27.000000 and TNOM = 27.000000


Initial Transient Solution
--------------------------

Node                                   Voltage
----                                   -------
vs_node                                      5
probe                                        0
vs#branch                                    0


No. of Data Rows : 59

  Measurements for Transient Analysis

v_vs                =  5.000000e+00
v_probe             =  0.000000e+00


Total analysis time (seconds) = 0.003

Total elapsed time (seconds) = 0.041 

Total DRAM available = 32452.422 MB.
DRAM currently available = 12549.852 MB.
Maximum ngspice program size =   15.922 MB.
Current ngspice program size =   15.922 MB.

