
Note: No compatibility mode selected!


Circuit: t11 relay energized (and=1)

Doing analysis at TEMP = 27.000000 and TNOM = 27.000000


Initial Transient Solution
--------------------------

Node                                   Voltage
----                                   -------
vs_node                                      5
probe                                   4.9995
vs#branch                           -0.0049995


No. of Data Rows : 59

  Measurements for Transient Analysis

v_vs                =  5.000000e+00
v_probe             =  4.999500e+00


Total analysis time (seconds) = 0.003

Total elapsed time (seconds) = 0.041 

Total DRAM available = 32452.422 MB.
DRAM currently available = 12831.574 MB.
Maximum ngspice program size =   15.922 MB.
Current ngspice program size =   15.922 MB.

