
Note: No compatibility mode selected!


Circuit: t2 and gate high driving 1k

Doing analysis at TEMP = 27.000000 and TNOM = 27.000000


Initial Transient Solution
--------------------------

Node                                   Voltage
----                                   -------
gate                                         5
vgate#branch                            -0.005


No. of Data Rows : 59

  Measurements for Transient Analysis

v_probe             =  5.000000e+00


Total analysis time (seconds) = 0.003

Total elapsed time (seconds) = 0.042 

Total DRAM available = 32452.422 MB.
DRAM currently available = 12897.309 MB.
Maximum ngspice program size =   15.910 MB.
Current ngspice program size =   15.910 MB.

