
Note: No compatibility mode selected!


Circuit: t3 pwm rc fast pwm

Doing analysis at TEMP = 27.000000 and TNOM = 27.000000

Using transient initial conditions

No. of Data Rows : 64797

  Measurements for Transient Analysis

v_cap_mean          =  2.500050e+00 from=  4.000000e-02 to=  5.000000e-02
v_cap_max           =  2.562536e+00 at=  4.005000e-02
v_cap_min           =  2.437564e+00 at=  4.890000e-02


Total analysis time (seconds) = 0.209

Total elapsed time (seconds) = 0.249 

Total DRAM available = 32452.422 MB.
DRAM currently available = 12922.215 MB.
Maximum ngspice program size =   17.676 MB.
Current ngspice program size =   17.676 MB.

