
Note: No compatibility mode selected!


Circuit: t3 pwm to rc filter 50 pct duty

Doing analysis at TEMP = 27.000000 and TNOM = 27.000000

Using transient initial conditions

No. of Data Rows : 12326

  Measurements for Transient Analysis

v_cap_ss            =  1.887703e+00
v_cap_end           =  1.887703e+00


Total analysis time (seconds) = 0.041

Total elapsed time (seconds) = 0.079 

Total DRAM available = 32452.422 MB.
DRAM currently available = 12891.551 MB.
Maximum ngspice program size =   16.289 MB.
Current ngspice program size =   16.289 MB.

