
Note: No compatibility mode selected!


Circuit: t3 pwm rc slow pwm

Doing analysis at TEMP = 27.000000 and TNOM = 27.000000

Using transient initial conditions

No. of Data Rows : 6826

  Measurements for Transient Analysis

v_cap_mean          =  2.500025e+00 from=  4.000000e-01 to=  5.000000e-01
v_cap_max           =  4.966671e+00 at=  4.850000e-01
v_cap_min           =  3.333109e-02 at=  5.000000e-01


Total analysis time (seconds) = 0.025

Total elapsed time (seconds) = 0.062 

Total DRAM available = 32452.422 MB.
DRAM currently available = 12937.109 MB.
Maximum ngspice program size =   16.125 MB.
Current ngspice program size =   16.125 MB.

