
Note: No compatibility mode selected!


Circuit: t7 555 cap charge discharge

Doing analysis at TEMP = 27.000000 and TNOM = 27.000000


Initial Transient Solution
--------------------------

Node                                   Voltage
----                                   -------
vcc                                          5
dis_sw                                       5
cap                                          5
vdis#branch                        4.33681e-19
vcc#branch                                   0


No. of Data Rows : 2090

  Measurements for Transient Analysis

v_cap_min           =  2.058327e+00 at=  6.930001e-03
v_cap_max           =  5.000000e+00 at=  0.000000e+00
v_vcc               =  5.000000e+00


Total analysis time (seconds) = 0.007

Total elapsed time (seconds) = 0.046 

Total DRAM available = 32452.422 MB.
DRAM currently available = 12921.070 MB.
Maximum ngspice program size =   15.992 MB.
Current ngspice program size =   15.992 MB.

