
Note: No compatibility mode selected!


Circuit: t7 555 astable timer

Doing analysis at TEMP = 27.000000 and TNOM = 27.000000


Initial Transient Solution
--------------------------

Node                                   Voltage
----                                   -------
vcc                                          5
dis                                          5
cap                                          5
vcc#branch                        -8.67362e-19


No. of Data Rows : 2008

  Measurements for Transient Analysis

v_cap_min           =  5.000000e+00 at=  1.280000e-05
v_cap_max           =  5.000000e+00 at=  0.000000e+00
v_vcc               =  5.000000e+00


Total analysis time (seconds) = 0.008

Total elapsed time (seconds) = 0.046 

Total DRAM available = 32452.422 MB.
DRAM currently available = 12829.102 MB.
Maximum ngspice program size =   16.000 MB.
Current ngspice program size =   16.000 MB.

