
Note: No compatibility mode selected!


Circuit: t9 bjt common emitter

Doing analysis at TEMP = 27.000000 and TNOM = 27.000000


Initial Transient Solution
--------------------------

Node                                   Voltage
----                                   -------
vcc                                          5
base                                  0.722094
coll                                 0.0302009
vcc#branch                          -0.0092477


No. of Data Rows : 59

  Measurements for Transient Analysis

v_vcc               =  5.000000e+00
v_base              =  7.220942e-01
v_coll              =  3.020094e-02


Total analysis time (seconds) = 0.003

Total elapsed time (seconds) = 0.040 

Total DRAM available = 32452.422 MB.
DRAM currently available = 12834.633 MB.
Maximum ngspice program size =   15.961 MB.
Current ngspice program size =   15.961 MB.

