
Note: No compatibility mode selected!


Circuit: * 555 astable behavioral model ra=1k rb=10k c=1u vcc=5v

Doing analysis at TEMP = 27.000000 and TNOM = 27.000000

Using transient initial conditions

No. of Data Rows : 611
            * 555 astable behavioral model ra=1k rb=10k c=1u vcc=5v
            Transient Analysis  Fri Mar 27 20:38:12  2026
--------------------------------------------------------------------------------
Index   time            v(output)       v(cap)          
--------------------------------------------------------------------------------
0	1.000000e-06	5.000000e+00	4.945104e-06	
1	2.000000e-06	5.000000e+00	9.889715e-06	
2	4.000000e-06	5.000000e+00	1.977795e-05	
3	8.000000e-06	5.000000e+00	3.954849e-05	
4	1.600000e-05	5.000000e+00	7.906588e-05	
5	3.200000e-05	5.000000e+00	1.580060e-04	
6	6.400000e-05	5.000000e+00	3.155083e-04	
7	1.000000e-04	5.000000e+00	4.920975e-04	
8	1.064000e-04	5.000000e+00	5.234147e-04	
9	1.192000e-04	5.000000e+00	5.860091e-04	
10	1.448000e-04	5.000000e+00	7.109579e-04	
11	1.960000e-04	5.000000e+00	9.598994e-04	
12	2.960000e-04	5.000000e+00	1.442459e-03	
13	3.960000e-04	5.000000e+00	1.920222e-03	
14	4.960000e-04	5.000000e+00	2.393236e-03	
15	5.960000e-04	5.000000e+00	2.861548e-03	
16	6.960000e-04	5.000000e+00	3.325205e-03	
17	7.960000e-04	5.000000e+00	3.784253e-03	
18	8.960000e-04	5.000000e+00	4.238737e-03	
19	9.960000e-04	5.000000e+00	4.688704e-03	
20	1.096000e-03	5.000000e+00	5.134198e-03	
21	1.196000e-03	5.000000e+00	5.575263e-03	
22	1.296000e-03	5.000000e+00	6.011944e-03	
23	1.396000e-03	5.000000e+00	6.444285e-03	
24	1.496000e-03	5.000000e+00	6.872327e-03	
25	1.596000e-03	5.000000e+00	7.296115e-03	
26	1.696000e-03	5.000000e+00	7.715690e-03	
27	1.796000e-03	5.000000e+00	8.131094e-03	
28	1.896000e-03	5.000000e+00	8.542369e-03	
29	1.996000e-03	5.000000e+00	8.949556e-03	
30	2.096000e-03	5.000000e+00	9.352695e-03	
31	2.196000e-03	5.000000e+00	9.751827e-03	
32	2.296000e-03	5.000000e+00	1.014699e-02	
33	2.396000e-03	5.000000e+00	1.053823e-02	
34	2.496000e-03	5.000000e+00	1.092557e-02	
35	2.596000e-03	5.000000e+00	1.130907e-02	
36	2.696000e-03	5.000000e+00	1.168876e-02	
37	2.796000e-03	5.000000e+00	1.206467e-02	
38	2.896000e-03	5.000000e+00	1.243684e-02	
39	2.996000e-03	5.000000e+00	1.280531e-02	
40	3.096000e-03	5.000000e+00	1.317012e-02	
41	3.196000e-03	5.000000e+00	1.353131e-02	
42	3.296000e-03	5.000000e+00	1.388890e-02	
43	3.396000e-03	5.000000e+00	1.424294e-02	
44	3.496000e-03	5.000000e+00	1.459346e-02	
45	3.596000e-03	5.000000e+00	1.494050e-02	
46	3.696000e-03	5.000000e+00	1.528409e-02	
47	3.796000e-03	5.000000e+00	1.562426e-02	
48	3.896000e-03	5.000000e+00	1.596105e-02	
49	3.996000e-03	5.000000e+00	1.629449e-02	
50	4.096000e-03	5.000000e+00	1.662462e-02	
51	4.196000e-03	5.000000e+00	1.695146e-02	
52	4.296000e-03	5.000000e+00	1.727506e-02	
53	4.396000e-03	5.000000e+00	1.759544e-02	
54	4.496000e-03	5.000000e+00	1.791263e-02	

Index   time            v(output)       v(cap)          
--------------------------------------------------------------------------------
55	4.596000e-03	5.000000e+00	1.822667e-02	
56	4.696000e-03	5.000000e+00	1.853759e-02	
57	4.796000e-03	5.000000e+00	1.884542e-02	
58	4.896000e-03	5.000000e+00	1.915019e-02	
59	4.996000e-03	5.000000e+00	1.945193e-02	
60	5.096000e-03	5.000000e+00	1.975067e-02	
61	5.196000e-03	5.000000e+00	2.004645e-02	
62	5.296000e-03	5.000000e+00	2.033928e-02	
63	5.396000e-03	5.000000e+00	2.062920e-02	
64	5.496000e-03	5.000000e+00	2.091623e-02	
65	5.596000e-03	5.000000e+00	2.120042e-02	
66	5.696000e-03	5.000000e+00	2.148178e-02	
67	5.796000e-03	5.000000e+00	2.176034e-02	
68	5.896000e-03	5.000000e+00	2.203614e-02	
69	5.996000e-03	5.000000e+00	2.230919e-02	
70	6.096000e-03	5.000000e+00	2.257953e-02	
71	6.196000e-03	5.000000e+00	2.284718e-02	
72	6.296000e-03	5.000000e+00	2.311217e-02	
73	6.396000e-03	5.000000e+00	2.337453e-02	
74	6.496000e-03	5.000000e+00	2.363427e-02	
75	6.596000e-03	5.000000e+00	2.389144e-02	
76	6.696000e-03	5.000000e+00	2.414605e-02	
77	6.796000e-03	5.000000e+00	2.439813e-02	
78	6.896000e-03	5.000000e+00	2.464770e-02	
79	6.996000e-03	5.000000e+00	2.489479e-02	
80	7.096000e-03	5.000000e+00	2.513943e-02	
81	7.196000e-03	5.000000e+00	2.538163e-02	
82	7.296000e-03	5.000000e+00	2.562143e-02	
83	7.396000e-03	5.000000e+00	2.585884e-02	
84	7.496000e-03	5.000000e+00	2.609390e-02	
85	7.596000e-03	5.000000e+00	2.632661e-02	
86	7.696000e-03	5.000000e+00	2.655702e-02	
87	7.796000e-03	5.000000e+00	2.678513e-02	
88	7.896000e-03	5.000000e+00	2.701098e-02	
89	7.996000e-03	5.000000e+00	2.723458e-02	
90	8.096000e-03	5.000000e+00	2.745595e-02	
91	8.196000e-03	5.000000e+00	2.767513e-02	
92	8.296000e-03	5.000000e+00	2.789213e-02	
93	8.396000e-03	5.000000e+00	2.810697e-02	
94	8.496000e-03	5.000000e+00	2.831968e-02	
95	8.596000e-03	5.000000e+00	2.853027e-02	
96	8.696000e-03	5.000000e+00	2.873877e-02	
97	8.796000e-03	5.000000e+00	2.894519e-02	
98	8.896000e-03	5.000000e+00	2.914956e-02	
99	8.996000e-03	5.000000e+00	2.935191e-02	
100	9.096000e-03	5.000000e+00	2.955224e-02	
101	9.196000e-03	5.000000e+00	2.975058e-02	
102	9.296000e-03	5.000000e+00	2.994694e-02	
103	9.396000e-03	5.000000e+00	3.014136e-02	
104	9.496000e-03	5.000000e+00	3.033384e-02	
105	9.596000e-03	5.000000e+00	3.052441e-02	
106	9.696000e-03	5.000000e+00	3.071309e-02	
107	9.796000e-03	5.000000e+00	3.089989e-02	
108	9.896000e-03	5.000000e+00	3.108483e-02	
109	9.996000e-03	5.000000e+00	3.126793e-02	
110	1.009600e-02	5.000000e+00	3.144922e-02	
111	1.019600e-02	5.000000e+00	3.162870e-02	
112	1.029600e-02	5.000000e+00	3.180640e-02	

Index   time            v(output)       v(cap)          
--------------------------------------------------------------------------------
113	1.039600e-02	5.000000e+00	3.198233e-02	
114	1.049600e-02	5.000000e+00	3.215651e-02	
115	1.059600e-02	5.000000e+00	3.232896e-02	
116	1.069600e-02	5.000000e+00	3.249970e-02	
117	1.079600e-02	5.000000e+00	3.266874e-02	
118	1.089600e-02	5.000000e+00	3.283610e-02	
119	1.099600e-02	5.000000e+00	3.300180e-02	
120	1.109600e-02	5.000000e+00	3.316585e-02	
121	1.119600e-02	5.000000e+00	3.332826e-02	
122	1.129600e-02	5.000000e+00	3.348907e-02	
123	1.139600e-02	5.000000e+00	3.364827e-02	
124	1.149600e-02	5.000000e+00	3.380589e-02	
125	1.159600e-02	5.000000e+00	3.396195e-02	
126	1.169600e-02	5.000000e+00	3.411645e-02	
127	1.179600e-02	5.000000e+00	3.426942e-02	
128	1.189600e-02	5.000000e+00	3.442087e-02	
129	1.199600e-02	5.000000e+00	3.457081e-02	
130	1.209600e-02	5.000000e+00	3.471927e-02	
131	1.219600e-02	5.000000e+00	3.486624e-02	
132	1.229600e-02	5.000000e+00	3.501176e-02	
133	1.239600e-02	5.000000e+00	3.515583e-02	
134	1.249600e-02	5.000000e+00	3.529846e-02	
135	1.259600e-02	5.000000e+00	3.543968e-02	
136	1.269600e-02	5.000000e+00	3.557950e-02	
137	1.279600e-02	5.000000e+00	3.571792e-02	
138	1.289600e-02	5.000000e+00	3.585497e-02	
139	1.299600e-02	5.000000e+00	3.599066e-02	
140	1.309600e-02	5.000000e+00	3.612500e-02	
141	1.319600e-02	5.000000e+00	3.625800e-02	
142	1.329600e-02	5.000000e+00	3.638968e-02	
143	1.339600e-02	5.000000e+00	3.652005e-02	
144	1.349600e-02	5.000000e+00	3.664913e-02	
145	1.359600e-02	5.000000e+00	3.677692e-02	
146	1.369600e-02	5.000000e+00	3.690344e-02	
147	1.379600e-02	5.000000e+00	3.702871e-02	
148	1.389600e-02	5.000000e+00	3.715273e-02	
149	1.399600e-02	5.000000e+00	3.727552e-02	
150	1.409600e-02	5.000000e+00	3.739708e-02	
151	1.419600e-02	5.000000e+00	3.751744e-02	
152	1.429600e-02	5.000000e+00	3.763660e-02	
153	1.439600e-02	5.000000e+00	3.775458e-02	
154	1.449600e-02	5.000000e+00	3.787138e-02	
155	1.459600e-02	5.000000e+00	3.798702e-02	
156	1.469600e-02	5.000000e+00	3.810152e-02	
157	1.479600e-02	5.000000e+00	3.821487e-02	
158	1.489600e-02	5.000000e+00	3.832710e-02	
159	1.499600e-02	5.000000e+00	3.843821e-02	
160	1.509600e-02	5.000000e+00	3.854822e-02	
161	1.519600e-02	5.000000e+00	3.865714e-02	
162	1.529600e-02	5.000000e+00	3.876497e-02	
163	1.539600e-02	5.000000e+00	3.887173e-02	
164	1.549600e-02	5.000000e+00	3.897743e-02	
165	1.559600e-02	5.000000e+00	3.908208e-02	
166	1.569600e-02	5.000000e+00	3.918569e-02	
167	1.579600e-02	5.000000e+00	3.928826e-02	
168	1.589600e-02	5.000000e+00	3.938982e-02	
169	1.599600e-02	5.000000e+00	3.949037e-02	
170	1.609600e-02	5.000000e+00	3.958992e-02	

Index   time            v(output)       v(cap)          
--------------------------------------------------------------------------------
171	1.619600e-02	5.000000e+00	3.968848e-02	
172	1.629600e-02	5.000000e+00	3.978606e-02	
173	1.639600e-02	5.000000e+00	3.988267e-02	
174	1.649600e-02	5.000000e+00	3.997832e-02	
175	1.659600e-02	5.000000e+00	4.007302e-02	
176	1.669600e-02	5.000000e+00	4.016678e-02	
177	1.679600e-02	5.000000e+00	4.025960e-02	
178	1.689600e-02	5.000000e+00	4.035151e-02	
179	1.699600e-02	5.000000e+00	4.044250e-02	
180	1.709600e-02	5.000000e+00	4.053258e-02	
181	1.719600e-02	5.000000e+00	4.062177e-02	
182	1.729600e-02	5.000000e+00	4.071007e-02	
183	1.739600e-02	5.000000e+00	4.079750e-02	
184	1.749600e-02	5.000000e+00	4.088405e-02	
185	1.759600e-02	5.000000e+00	4.096975e-02	
186	1.769600e-02	5.000000e+00	4.105459e-02	
187	1.779600e-02	5.000000e+00	4.113859e-02	
188	1.789600e-02	5.000000e+00	4.122176e-02	
189	1.799600e-02	5.000000e+00	4.130410e-02	
190	1.809600e-02	5.000000e+00	4.138562e-02	
191	1.819600e-02	5.000000e+00	4.146633e-02	
192	1.829600e-02	5.000000e+00	4.154624e-02	
193	1.839600e-02	5.000000e+00	4.162535e-02	
194	1.849600e-02	5.000000e+00	4.170368e-02	
195	1.859600e-02	5.000000e+00	4.178122e-02	
196	1.869600e-02	5.000000e+00	4.185800e-02	
197	1.879600e-02	5.000000e+00	4.193402e-02	
198	1.889600e-02	5.000000e+00	4.200927e-02	
199	1.899600e-02	5.000000e+00	4.208378e-02	
200	1.909600e-02	5.000000e+00	4.215755e-02	
201	1.919600e-02	5.000000e+00	4.223059e-02	
202	1.929600e-02	5.000000e+00	4.230290e-02	
203	1.939600e-02	5.000000e+00	4.237449e-02	
204	1.949600e-02	5.000000e+00	4.244537e-02	
205	1.959600e-02	5.000000e+00	4.251555e-02	
206	1.969600e-02	5.000000e+00	4.258503e-02	
207	1.979600e-02	5.000000e+00	4.265381e-02	
208	1.989600e-02	5.000000e+00	4.272192e-02	
209	1.999600e-02	5.000000e+00	4.278934e-02	
210	2.009600e-02	5.000000e+00	4.285610e-02	
211	2.019600e-02	5.000000e+00	4.292219e-02	
212	2.029600e-02	5.000000e+00	4.298763e-02	
213	2.039600e-02	5.000000e+00	4.305241e-02	
214	2.049600e-02	5.000000e+00	4.311655e-02	
215	2.059600e-02	5.000000e+00	4.318006e-02	
216	2.069600e-02	5.000000e+00	4.324293e-02	
217	2.079600e-02	5.000000e+00	4.330518e-02	
218	2.089600e-02	5.000000e+00	4.336681e-02	
219	2.099600e-02	5.000000e+00	4.342782e-02	
220	2.109600e-02	5.000000e+00	4.348823e-02	
221	2.119600e-02	5.000000e+00	4.354804e-02	
222	2.129600e-02	5.000000e+00	4.360725e-02	
223	2.139600e-02	5.000000e+00	4.366588e-02	
224	2.149600e-02	5.000000e+00	4.372392e-02	
225	2.159600e-02	5.000000e+00	4.378139e-02	
226	2.169600e-02	5.000000e+00	4.383828e-02	
227	2.179600e-02	5.000000e+00	4.389461e-02	
228	2.189600e-02	5.000000e+00	4.395038e-02	

Index   time            v(output)       v(cap)          
--------------------------------------------------------------------------------
229	2.199600e-02	5.000000e+00	4.400560e-02	
230	2.209600e-02	5.000000e+00	4.406026e-02	
231	2.219600e-02	5.000000e+00	4.411439e-02	
232	2.229600e-02	5.000000e+00	4.416797e-02	
233	2.239600e-02	5.000000e+00	4.422102e-02	
234	2.249600e-02	5.000000e+00	4.427355e-02	
235	2.259600e-02	5.000000e+00	4.432555e-02	
236	2.269600e-02	5.000000e+00	4.437704e-02	
237	2.279600e-02	5.000000e+00	4.442801e-02	
238	2.289600e-02	5.000000e+00	4.447848e-02	
239	2.299600e-02	5.000000e+00	4.452844e-02	
240	2.309600e-02	5.000000e+00	4.457791e-02	
241	2.319600e-02	5.000000e+00	4.462689e-02	
242	2.329600e-02	5.000000e+00	4.467538e-02	
243	2.339600e-02	5.000000e+00	4.472339e-02	
244	2.349600e-02	5.000000e+00	4.477092e-02	
245	2.359600e-02	5.000000e+00	4.481798e-02	
246	2.369600e-02	5.000000e+00	4.486457e-02	
247	2.379600e-02	5.000000e+00	4.491069e-02	
248	2.389600e-02	5.000000e+00	4.495636e-02	
249	2.399600e-02	5.000000e+00	4.500158e-02	
250	2.409600e-02	5.000000e+00	4.504634e-02	
251	2.419600e-02	5.000000e+00	4.509066e-02	
252	2.429600e-02	5.000000e+00	4.513454e-02	
253	2.439600e-02	5.000000e+00	4.517799e-02	
254	2.449600e-02	5.000000e+00	4.522100e-02	
255	2.459600e-02	5.000000e+00	4.526358e-02	
256	2.469600e-02	5.000000e+00	4.530575e-02	
257	2.479600e-02	5.000000e+00	4.534749e-02	
258	2.489600e-02	5.000000e+00	4.538881e-02	
259	2.499600e-02	5.000000e+00	4.542973e-02	
260	2.509600e-02	5.000000e+00	4.547024e-02	
261	2.519600e-02	5.000000e+00	4.551035e-02	
262	2.529600e-02	5.000000e+00	4.555006e-02	
263	2.539600e-02	5.000000e+00	4.558937e-02	
264	2.549600e-02	5.000000e+00	4.562829e-02	
265	2.559600e-02	5.000000e+00	4.566683e-02	
266	2.569600e-02	5.000000e+00	4.570498e-02	
267	2.579600e-02	5.000000e+00	4.574275e-02	
268	2.589600e-02	5.000000e+00	4.578015e-02	
269	2.599600e-02	5.000000e+00	4.581718e-02	
270	2.609600e-02	5.000000e+00	4.585384e-02	
271	2.619600e-02	5.000000e+00	4.589013e-02	
272	2.629600e-02	5.000000e+00	4.592606e-02	
273	2.639600e-02	5.000000e+00	4.596164e-02	
274	2.649600e-02	5.000000e+00	4.599686e-02	
275	2.659600e-02	5.000000e+00	4.603173e-02	
276	2.669600e-02	5.000000e+00	4.606626e-02	
277	2.679600e-02	5.000000e+00	4.610044e-02	
278	2.689600e-02	5.000000e+00	4.613428e-02	
279	2.699600e-02	5.000000e+00	4.616779e-02	
280	2.709600e-02	5.000000e+00	4.620096e-02	
281	2.719600e-02	5.000000e+00	4.623380e-02	
282	2.729600e-02	5.000000e+00	4.626632e-02	
283	2.739600e-02	5.000000e+00	4.629851e-02	
284	2.749600e-02	5.000000e+00	4.633039e-02	
285	2.759600e-02	5.000000e+00	4.636194e-02	
286	2.769600e-02	5.000000e+00	4.639319e-02	

Index   time            v(output)       v(cap)          
--------------------------------------------------------------------------------
287	2.779600e-02	5.000000e+00	4.642412e-02	
288	2.789600e-02	5.000000e+00	4.645474e-02	
289	2.799600e-02	5.000000e+00	4.648507e-02	
290	2.809600e-02	5.000000e+00	4.651508e-02	
291	2.819600e-02	5.000000e+00	4.654480e-02	
292	2.829600e-02	5.000000e+00	4.657423e-02	
293	2.839600e-02	5.000000e+00	4.660336e-02	
294	2.849600e-02	5.000000e+00	4.663221e-02	
295	2.859600e-02	5.000000e+00	4.666076e-02	
296	2.869600e-02	5.000000e+00	4.668903e-02	
297	2.879600e-02	5.000000e+00	4.671703e-02	
298	2.889600e-02	5.000000e+00	4.674474e-02	
299	2.899600e-02	5.000000e+00	4.677218e-02	
300	2.909600e-02	5.000000e+00	4.679934e-02	
301	2.919600e-02	5.000000e+00	4.682624e-02	
302	2.929600e-02	5.000000e+00	4.685286e-02	
303	2.939600e-02	5.000000e+00	4.687923e-02	
304	2.949600e-02	5.000000e+00	4.690533e-02	
305	2.959600e-02	5.000000e+00	4.693117e-02	
306	2.969600e-02	5.000000e+00	4.695675e-02	
307	2.979600e-02	5.000000e+00	4.698208e-02	
308	2.989600e-02	5.000000e+00	4.700716e-02	
309	2.999600e-02	5.000000e+00	4.703199e-02	
310	3.009600e-02	5.000000e+00	4.705657e-02	
311	3.019600e-02	5.000000e+00	4.708091e-02	
312	3.029600e-02	5.000000e+00	4.710501e-02	
313	3.039600e-02	5.000000e+00	4.712887e-02	
314	3.049600e-02	5.000000e+00	4.715248e-02	
315	3.059600e-02	5.000000e+00	4.717587e-02	
316	3.069600e-02	5.000000e+00	4.719902e-02	
317	3.079600e-02	5.000000e+00	4.722194e-02	
318	3.089600e-02	5.000000e+00	4.724464e-02	
319	3.099600e-02	5.000000e+00	4.726711e-02	
320	3.109600e-02	5.000000e+00	4.728935e-02	
321	3.119600e-02	5.000000e+00	4.731138e-02	
322	3.129600e-02	5.000000e+00	4.733318e-02	
323	3.139600e-02	5.000000e+00	4.735477e-02	
324	3.149600e-02	5.000000e+00	4.737614e-02	
325	3.159600e-02	5.000000e+00	4.739730e-02	
326	3.169600e-02	5.000000e+00	4.741825e-02	
327	3.179600e-02	5.000000e+00	4.743900e-02	
328	3.189600e-02	5.000000e+00	4.745953e-02	
329	3.199600e-02	5.000000e+00	4.747987e-02	
330	3.209600e-02	5.000000e+00	4.750000e-02	
331	3.219600e-02	5.000000e+00	4.751993e-02	
332	3.229600e-02	5.000000e+00	4.753966e-02	
333	3.239600e-02	5.000000e+00	4.755919e-02	
334	3.249600e-02	5.000000e+00	4.757854e-02	
335	3.259600e-02	5.000000e+00	4.759769e-02	
336	3.269600e-02	5.000000e+00	4.761664e-02	
337	3.279600e-02	5.000000e+00	4.763542e-02	
338	3.289600e-02	5.000000e+00	4.765400e-02	
339	3.299600e-02	5.000000e+00	4.767240e-02	
340	3.309600e-02	5.000000e+00	4.769062e-02	
341	3.319600e-02	5.000000e+00	4.770865e-02	
342	3.329600e-02	5.000000e+00	4.772651e-02	
343	3.339600e-02	5.000000e+00	4.774419e-02	
344	3.349600e-02	5.000000e+00	4.776169e-02	

Index   time            v(output)       v(cap)          
--------------------------------------------------------------------------------
345	3.359600e-02	5.000000e+00	4.777902e-02	
346	3.369600e-02	5.000000e+00	4.779617e-02	
347	3.379600e-02	5.000000e+00	4.781316e-02	
348	3.389600e-02	5.000000e+00	4.782998e-02	
349	3.399600e-02	5.000000e+00	4.784663e-02	
350	3.409600e-02	5.000000e+00	4.786311e-02	
351	3.419600e-02	5.000000e+00	4.787943e-02	
352	3.429600e-02	5.000000e+00	4.789559e-02	
353	3.439600e-02	5.000000e+00	4.791159e-02	
354	3.449600e-02	5.000000e+00	4.792743e-02	
355	3.459600e-02	5.000000e+00	4.794311e-02	
356	3.469600e-02	5.000000e+00	4.795863e-02	
357	3.479600e-02	5.000000e+00	4.797400e-02	
358	3.489600e-02	5.000000e+00	4.798922e-02	
359	3.499600e-02	5.000000e+00	4.800429e-02	
360	3.509600e-02	5.000000e+00	4.801921e-02	
361	3.519600e-02	5.000000e+00	4.803398e-02	
362	3.529600e-02	5.000000e+00	4.804860e-02	
363	3.539600e-02	5.000000e+00	4.806307e-02	
364	3.549600e-02	5.000000e+00	4.807741e-02	
365	3.559600e-02	5.000000e+00	4.809160e-02	
366	3.569600e-02	5.000000e+00	4.810565e-02	
367	3.579600e-02	5.000000e+00	4.811956e-02	
368	3.589600e-02	5.000000e+00	4.813333e-02	
369	3.599600e-02	5.000000e+00	4.814696e-02	
370	3.609600e-02	5.000000e+00	4.816046e-02	
371	3.619600e-02	5.000000e+00	4.817383e-02	
372	3.629600e-02	5.000000e+00	4.818706e-02	
373	3.639600e-02	5.000000e+00	4.820016e-02	
374	3.649600e-02	5.000000e+00	4.821313e-02	
375	3.659600e-02	5.000000e+00	4.822597e-02	
376	3.669600e-02	5.000000e+00	4.823868e-02	
377	3.679600e-02	5.000000e+00	4.825127e-02	
378	3.689600e-02	5.000000e+00	4.826373e-02	
379	3.699600e-02	5.000000e+00	4.827607e-02	
380	3.709600e-02	5.000000e+00	4.828829e-02	
381	3.719600e-02	5.000000e+00	4.830038e-02	
382	3.729600e-02	5.000000e+00	4.831236e-02	
383	3.739600e-02	5.000000e+00	4.832421e-02	
384	3.749600e-02	5.000000e+00	4.833595e-02	
385	3.759600e-02	5.000000e+00	4.834757e-02	
386	3.769600e-02	5.000000e+00	4.835907e-02	
387	3.779600e-02	5.000000e+00	4.837046e-02	
388	3.789600e-02	5.000000e+00	4.838174e-02	
389	3.799600e-02	5.000000e+00	4.839291e-02	
390	3.809600e-02	5.000000e+00	4.840396e-02	
391	3.819600e-02	5.000000e+00	4.841491e-02	
392	3.829600e-02	5.000000e+00	4.842574e-02	
393	3.839600e-02	5.000000e+00	4.843647e-02	
394	3.849600e-02	5.000000e+00	4.844709e-02	
395	3.859600e-02	5.000000e+00	4.845761e-02	
396	3.869600e-02	5.000000e+00	4.846802e-02	
397	3.879600e-02	5.000000e+00	4.847832e-02	
398	3.889600e-02	5.000000e+00	4.848853e-02	
399	3.899600e-02	5.000000e+00	4.849863e-02	
400	3.909600e-02	5.000000e+00	4.850864e-02	
401	3.919600e-02	5.000000e+00	4.851854e-02	
402	3.929600e-02	5.000000e+00	4.852835e-02	

Index   time            v(output)       v(cap)          
--------------------------------------------------------------------------------
403	3.939600e-02	5.000000e+00	4.853805e-02	
404	3.949600e-02	5.000000e+00	4.854766e-02	
405	3.959600e-02	5.000000e+00	4.855718e-02	
406	3.969600e-02	5.000000e+00	4.856660e-02	
407	3.979600e-02	5.000000e+00	4.857593e-02	
408	3.989600e-02	5.000000e+00	4.858516e-02	
409	3.999600e-02	5.000000e+00	4.859431e-02	
410	4.009600e-02	5.000000e+00	4.860336e-02	
411	4.019600e-02	5.000000e+00	4.861232e-02	
412	4.029600e-02	5.000000e+00	4.862119e-02	
413	4.039600e-02	5.000000e+00	4.862998e-02	
414	4.049600e-02	5.000000e+00	4.863868e-02	
415	4.059600e-02	5.000000e+00	4.864729e-02	
416	4.069600e-02	5.000000e+00	4.865581e-02	
417	4.079600e-02	5.000000e+00	4.866425e-02	
418	4.089600e-02	5.000000e+00	4.867261e-02	
419	4.099600e-02	5.000000e+00	4.868089e-02	
420	4.109600e-02	5.000000e+00	4.868908e-02	
421	4.119600e-02	5.000000e+00	4.869719e-02	
422	4.129600e-02	5.000000e+00	4.870522e-02	
423	4.139600e-02	5.000000e+00	4.871317e-02	
424	4.149600e-02	5.000000e+00	4.872104e-02	
425	4.159600e-02	5.000000e+00	4.872883e-02	
426	4.169600e-02	5.000000e+00	4.873654e-02	
427	4.179600e-02	5.000000e+00	4.874418e-02	
428	4.189600e-02	5.000000e+00	4.875175e-02	
429	4.199600e-02	5.000000e+00	4.875923e-02	
430	4.209600e-02	5.000000e+00	4.876665e-02	
431	4.219600e-02	5.000000e+00	4.877398e-02	
432	4.229600e-02	5.000000e+00	4.878125e-02	
433	4.239600e-02	5.000000e+00	4.878844e-02	
434	4.249600e-02	5.000000e+00	4.879557e-02	
435	4.259600e-02	5.000000e+00	4.880262e-02	
436	4.269600e-02	5.000000e+00	4.880960e-02	
437	4.279600e-02	5.000000e+00	4.881651e-02	
438	4.289600e-02	5.000000e+00	4.882336e-02	
439	4.299600e-02	5.000000e+00	4.883013e-02	
440	4.309600e-02	5.000000e+00	4.883684e-02	
441	4.319600e-02	5.000000e+00	4.884348e-02	
442	4.329600e-02	5.000000e+00	4.885006e-02	
443	4.339600e-02	5.000000e+00	4.885657e-02	
444	4.349600e-02	5.000000e+00	4.886301e-02	
445	4.359600e-02	5.000000e+00	4.886939e-02	
446	4.369600e-02	5.000000e+00	4.887571e-02	
447	4.379600e-02	5.000000e+00	4.888196e-02	
448	4.389600e-02	5.000000e+00	4.888816e-02	
449	4.399600e-02	5.000000e+00	4.889429e-02	
450	4.409600e-02	5.000000e+00	4.890036e-02	
451	4.419600e-02	5.000000e+00	4.890637e-02	
452	4.429600e-02	5.000000e+00	4.891232e-02	
453	4.439600e-02	5.000000e+00	4.891821e-02	
454	4.449600e-02	5.000000e+00	4.892404e-02	
455	4.459600e-02	5.000000e+00	4.892982e-02	
456	4.469600e-02	5.000000e+00	4.893553e-02	
457	4.479600e-02	5.000000e+00	4.894119e-02	
458	4.489600e-02	5.000000e+00	4.894680e-02	
459	4.499600e-02	5.000000e+00	4.895235e-02	
460	4.509600e-02	5.000000e+00	4.895784e-02	

Index   time            v(output)       v(cap)          
--------------------------------------------------------------------------------
461	4.519600e-02	5.000000e+00	4.896328e-02	
462	4.529600e-02	5.000000e+00	4.896866e-02	
463	4.539600e-02	5.000000e+00	4.897399e-02	
464	4.549600e-02	5.000000e+00	4.897927e-02	
465	4.559600e-02	5.000000e+00	4.898450e-02	
466	4.569600e-02	5.000000e+00	4.898967e-02	
467	4.579600e-02	5.000000e+00	4.899479e-02	
468	4.589600e-02	5.000000e+00	4.899986e-02	
469	4.599600e-02	5.000000e+00	4.900488e-02	
470	4.609600e-02	5.000000e+00	4.900986e-02	
471	4.619600e-02	5.000000e+00	4.901478e-02	
472	4.629600e-02	5.000000e+00	4.901965e-02	
473	4.639600e-02	5.000000e+00	4.902447e-02	
474	4.649600e-02	5.000000e+00	4.902925e-02	
475	4.659600e-02	5.000000e+00	4.903398e-02	
476	4.669600e-02	5.000000e+00	4.903866e-02	
477	4.679600e-02	5.000000e+00	4.904330e-02	
478	4.689600e-02	5.000000e+00	4.904788e-02	
479	4.699600e-02	5.000000e+00	4.905243e-02	
480	4.709600e-02	5.000000e+00	4.905693e-02	
481	4.719600e-02	5.000000e+00	4.906138e-02	
482	4.729600e-02	5.000000e+00	4.906579e-02	
483	4.739600e-02	5.000000e+00	4.907015e-02	
484	4.749600e-02	5.000000e+00	4.907448e-02	
485	4.759600e-02	5.000000e+00	4.907876e-02	
486	4.769600e-02	5.000000e+00	4.908299e-02	
487	4.779600e-02	5.000000e+00	4.908719e-02	
488	4.789600e-02	5.000000e+00	4.909134e-02	
489	4.799600e-02	5.000000e+00	4.909545e-02	
490	4.809600e-02	5.000000e+00	4.909952e-02	
491	4.819600e-02	5.000000e+00	4.910355e-02	
492	4.829600e-02	5.000000e+00	4.910754e-02	
493	4.839600e-02	5.000000e+00	4.911149e-02	
494	4.849600e-02	5.000000e+00	4.911540e-02	
495	4.859600e-02	5.000000e+00	4.911928e-02	
496	4.869600e-02	5.000000e+00	4.912311e-02	
497	4.879600e-02	5.000000e+00	4.912691e-02	
498	4.889600e-02	5.000000e+00	4.913066e-02	
499	4.899600e-02	5.000000e+00	4.913438e-02	
500	4.909600e-02	5.000000e+00	4.913807e-02	
501	4.919600e-02	5.000000e+00	4.914171e-02	
502	4.929600e-02	5.000000e+00	4.914532e-02	
503	4.939600e-02	5.000000e+00	4.914890e-02	
504	4.949600e-02	5.000000e+00	4.915244e-02	
505	4.959600e-02	5.000000e+00	4.915594e-02	
506	4.969600e-02	5.000000e+00	4.915941e-02	
507	4.979600e-02	5.000000e+00	4.916285e-02	
508	4.989600e-02	5.000000e+00	4.916625e-02	
509	4.999600e-02	5.000000e+00	4.916961e-02	
510	5.009600e-02	5.000000e+00	4.917295e-02	
511	5.019600e-02	5.000000e+00	4.917625e-02	
512	5.029600e-02	5.000000e+00	4.917952e-02	
513	5.039600e-02	5.000000e+00	4.918275e-02	
514	5.049600e-02	5.000000e+00	4.918595e-02	
515	5.059600e-02	5.000000e+00	4.918912e-02	
516	5.069600e-02	5.000000e+00	4.919226e-02	
517	5.079600e-02	5.000000e+00	4.919537e-02	
518	5.089600e-02	5.000000e+00	4.919845e-02	

Index   time            v(output)       v(cap)          
--------------------------------------------------------------------------------
519	5.099600e-02	5.000000e+00	4.920150e-02	
520	5.109600e-02	5.000000e+00	4.920451e-02	
521	5.119600e-02	5.000000e+00	4.920750e-02	
522	5.129600e-02	5.000000e+00	4.921046e-02	
523	5.139600e-02	5.000000e+00	4.921338e-02	
524	5.149600e-02	5.000000e+00	4.921628e-02	
525	5.159600e-02	5.000000e+00	4.921915e-02	
526	5.169600e-02	5.000000e+00	4.922199e-02	
527	5.179600e-02	5.000000e+00	4.922481e-02	
528	5.189600e-02	5.000000e+00	4.922759e-02	
529	5.199600e-02	5.000000e+00	4.923035e-02	
530	5.209600e-02	5.000000e+00	4.923308e-02	
531	5.219600e-02	5.000000e+00	4.923578e-02	
532	5.229600e-02	5.000000e+00	4.923845e-02	
533	5.239600e-02	5.000000e+00	4.924110e-02	
534	5.249600e-02	5.000000e+00	4.924373e-02	
535	5.259600e-02	5.000000e+00	4.924632e-02	
536	5.269600e-02	5.000000e+00	4.924889e-02	
537	5.279600e-02	5.000000e+00	4.925144e-02	
538	5.289600e-02	5.000000e+00	4.925396e-02	
539	5.299600e-02	5.000000e+00	4.925645e-02	
540	5.309600e-02	5.000000e+00	4.925892e-02	
541	5.319600e-02	5.000000e+00	4.926137e-02	
542	5.329600e-02	5.000000e+00	4.926379e-02	
543	5.339600e-02	5.000000e+00	4.926619e-02	
544	5.349600e-02	5.000000e+00	4.926856e-02	
545	5.359600e-02	5.000000e+00	4.927091e-02	
546	5.369600e-02	5.000000e+00	4.927324e-02	
547	5.379600e-02	5.000000e+00	4.927554e-02	
548	5.389600e-02	5.000000e+00	4.927782e-02	
549	5.399600e-02	5.000000e+00	4.928008e-02	
550	5.409600e-02	5.000000e+00	4.928232e-02	
551	5.419600e-02	5.000000e+00	4.928453e-02	
552	5.429600e-02	5.000000e+00	4.928672e-02	
553	5.439600e-02	5.000000e+00	4.928889e-02	
554	5.449600e-02	5.000000e+00	4.929104e-02	
555	5.459600e-02	5.000000e+00	4.929316e-02	
556	5.469600e-02	5.000000e+00	4.929527e-02	
557	5.479600e-02	5.000000e+00	4.929735e-02	
558	5.489600e-02	5.000000e+00	4.929942e-02	
559	5.499600e-02	5.000000e+00	4.930146e-02	
560	5.509600e-02	5.000000e+00	4.930348e-02	
561	5.519600e-02	5.000000e+00	4.930548e-02	
562	5.529600e-02	5.000000e+00	4.930747e-02	
563	5.539600e-02	5.000000e+00	4.930943e-02	
564	5.549600e-02	5.000000e+00	4.931137e-02	
565	5.559600e-02	5.000000e+00	4.931330e-02	
566	5.569600e-02	5.000000e+00	4.931520e-02	
567	5.579600e-02	5.000000e+00	4.931709e-02	
568	5.589600e-02	5.000000e+00	4.931896e-02	
569	5.599600e-02	5.000000e+00	4.932081e-02	
570	5.609600e-02	5.000000e+00	4.932264e-02	
571	5.619600e-02	5.000000e+00	4.932445e-02	
572	5.629600e-02	5.000000e+00	4.932624e-02	
573	5.639600e-02	5.000000e+00	4.932802e-02	
574	5.649600e-02	5.000000e+00	4.932978e-02	
575	5.659600e-02	5.000000e+00	4.933152e-02	
576	5.669600e-02	5.000000e+00	4.933324e-02	

Index   time            v(output)       v(cap)          
--------------------------------------------------------------------------------
577	5.679600e-02	5.000000e+00	4.933495e-02	
578	5.689600e-02	5.000000e+00	4.933664e-02	
579	5.699600e-02	5.000000e+00	4.933831e-02	
580	5.709600e-02	5.000000e+00	4.933997e-02	
581	5.719600e-02	5.000000e+00	4.934161e-02	
582	5.729600e-02	5.000000e+00	4.934323e-02	
583	5.739600e-02	5.000000e+00	4.934484e-02	
584	5.749600e-02	5.000000e+00	4.934643e-02	
585	5.759600e-02	5.000000e+00	4.934801e-02	
586	5.769600e-02	5.000000e+00	4.934957e-02	
587	5.779600e-02	5.000000e+00	4.935111e-02	
588	5.789600e-02	5.000000e+00	4.935264e-02	
589	5.799600e-02	5.000000e+00	4.935416e-02	
590	5.809600e-02	5.000000e+00	4.935566e-02	
591	5.819600e-02	5.000000e+00	4.935714e-02	
592	5.829600e-02	5.000000e+00	4.935861e-02	
593	5.839600e-02	5.000000e+00	4.936006e-02	
594	5.849600e-02	5.000000e+00	4.936150e-02	
595	5.859600e-02	5.000000e+00	4.936293e-02	
596	5.869600e-02	5.000000e+00	4.936434e-02	
597	5.879600e-02	5.000000e+00	4.936574e-02	
598	5.889600e-02	5.000000e+00	4.936712e-02	
599	5.899600e-02	5.000000e+00	4.936849e-02	
600	5.909600e-02	5.000000e+00	4.936985e-02	
601	5.919600e-02	5.000000e+00	4.937119e-02	
602	5.929600e-02	5.000000e+00	4.937252e-02	
603	5.939600e-02	5.000000e+00	4.937384e-02	
604	5.949600e-02	5.000000e+00	4.937514e-02	
605	5.959600e-02	5.000000e+00	4.937643e-02	
606	5.969600e-02	5.000000e+00	4.937771e-02	
607	5.979600e-02	5.000000e+00	4.937897e-02	
608	5.989600e-02	5.000000e+00	4.938023e-02	
609	5.999600e-02	5.000000e+00	4.938147e-02	
610	6.000000e-02	5.000000e+00	4.938152e-02	


Total analysis time (seconds) = 0.004

Total elapsed time (seconds) = 0.042 

Total DRAM available = 32452.422 MB.
DRAM currently available = 12989.820 MB.
Maximum ngspice program size =   16.035 MB.
Current ngspice program size =   16.035 MB.

