
Note: No compatibility mode selected!


Circuit: master3 dc - dac into rc

Doing analysis at TEMP = 27.000000 and TNOM = 27.000000

Using transient initial conditions

No. of Data Rows : 5011
                            master3 dc - dac into rc
                            Transient Analysis  Tue Mar 31 22:29:50  2026
--------------------------------------------------------------------------------
Index   time            v(vref)         v(rc_node)      v(cap_pos)      
--------------------------------------------------------------------------------
0	1.000000e-08	5.000000e+00	2.840912e+00	2.840883e-05	
1	2.000000e-08	5.000000e+00	2.840914e+00	5.681741e-05	
2	4.000000e-08	5.000000e+00	2.840919e+00	1.136340e-04	
3	8.000000e-08	5.000000e+00	2.840930e+00	2.272642e-04	
4	1.600000e-07	5.000000e+00	2.840950e+00	4.545121e-04	
5	3.200000e-07	5.000000e+00	2.840992e+00	9.089584e-04	
6	6.400000e-07	5.000000e+00	2.841074e+00	1.817653e-03	
7	1.000000e-06	5.000000e+00	2.841167e+00	2.839618e-03	
8	1.064000e-06	5.000000e+00	2.841184e+00	3.021260e-03	
9	1.192000e-06	5.000000e+00	2.841217e+00	3.384524e-03	
10	1.448000e-06	5.000000e+00	2.841283e+00	4.110925e-03	
11	1.960000e-06	5.000000e+00	2.841415e+00	5.563219e-03	
12	2.960000e-06	5.000000e+00	2.841673e+00	8.397782e-03	
13	3.960000e-06	5.000000e+00	2.841930e+00	1.122977e-02	
14	4.960000e-06	5.000000e+00	2.842187e+00	1.405918e-02	
15	5.960000e-06	5.000000e+00	2.842444e+00	1.688603e-02	
16	6.960000e-06	5.000000e+00	2.842701e+00	1.971030e-02	
17	7.960000e-06	5.000000e+00	2.842957e+00	2.253201e-02	
18	8.960000e-06	5.000000e+00	2.843214e+00	2.535115e-02	
19	9.960000e-06	5.000000e+00	2.843470e+00	2.816774e-02	
20	1.096000e-05	5.000000e+00	2.843726e+00	3.098176e-02	
21	1.196000e-05	5.000000e+00	2.843981e+00	3.379322e-02	
22	1.296000e-05	5.000000e+00	2.844237e+00	3.660214e-02	
23	1.396000e-05	5.000000e+00	2.844492e+00	3.940849e-02	
24	1.496000e-05	5.000000e+00	2.844747e+00	4.221230e-02	
25	1.596000e-05	5.000000e+00	2.845001e+00	4.501356e-02	
26	1.696000e-05	5.000000e+00	2.845256e+00	4.781228e-02	
27	1.796000e-05	5.000000e+00	2.845510e+00	5.060845e-02	
28	1.896000e-05	5.000000e+00	2.845764e+00	5.340208e-02	
29	1.996000e-05	5.000000e+00	2.846018e+00	5.619318e-02	
30	2.096000e-05	5.000000e+00	2.846271e+00	5.898173e-02	
31	2.196000e-05	5.000000e+00	2.846524e+00	6.176776e-02	
32	2.296000e-05	5.000000e+00	2.846777e+00	6.455125e-02	
33	2.396000e-05	5.000000e+00	2.847030e+00	6.733221e-02	
34	2.496000e-05	5.000000e+00	2.847283e+00	7.011064e-02	
35	2.596000e-05	5.000000e+00	2.847535e+00	7.288655e-02	
36	2.696000e-05	5.000000e+00	2.847787e+00	7.565994e-02	
37	2.796000e-05	5.000000e+00	2.848039e+00	7.843081e-02	
38	2.896000e-05	5.000000e+00	2.848291e+00	8.119916e-02	
39	2.996000e-05	5.000000e+00	2.848542e+00	8.396500e-02	
40	3.096000e-05	5.000000e+00	2.848793e+00	8.672832e-02	
41	3.196000e-05	5.000000e+00	2.849044e+00	8.948913e-02	
42	3.296000e-05	5.000000e+00	2.849295e+00	9.224743e-02	
43	3.396000e-05	5.000000e+00	2.849546e+00	9.500322e-02	
44	3.496000e-05	5.000000e+00	2.849796e+00	9.775651e-02	
45	3.596000e-05	5.000000e+00	2.850046e+00	1.005073e-01	
46	3.696000e-05	5.000000e+00	2.850296e+00	1.032556e-01	
47	3.796000e-05	5.000000e+00	2.850546e+00	1.060014e-01	
48	3.896000e-05	5.000000e+00	2.850795e+00	1.087447e-01	
49	3.996000e-05	5.000000e+00	2.851044e+00	1.114855e-01	
50	4.096000e-05	5.000000e+00	2.851293e+00	1.142238e-01	
51	4.196000e-05	5.000000e+00	2.851542e+00	1.169596e-01	
52	4.296000e-05	5.000000e+00	2.851790e+00	1.196930e-01	
53	4.396000e-05	5.000000e+00	2.852039e+00	1.224238e-01	
54	4.496000e-05	5.000000e+00	2.852287e+00	1.251522e-01	

Index   time            v(vref)         v(rc_node)      v(cap_pos)      
--------------------------------------------------------------------------------
55	4.596000e-05	5.000000e+00	2.852534e+00	1.278781e-01	
56	4.696000e-05	5.000000e+00	2.852782e+00	1.306015e-01	
57	4.796000e-05	5.000000e+00	2.853029e+00	1.333225e-01	
58	4.896000e-05	5.000000e+00	2.853276e+00	1.360409e-01	
59	4.996000e-05	5.000000e+00	2.853523e+00	1.387569e-01	
60	5.096000e-05	5.000000e+00	2.853770e+00	1.414705e-01	
61	5.196000e-05	5.000000e+00	2.854017e+00	1.441815e-01	
62	5.296000e-05	5.000000e+00	2.854263e+00	1.468901e-01	
63	5.396000e-05	5.000000e+00	2.854509e+00	1.495963e-01	
64	5.496000e-05	5.000000e+00	2.854755e+00	1.523000e-01	
65	5.596000e-05	5.000000e+00	2.855000e+00	1.550012e-01	
66	5.696000e-05	5.000000e+00	2.855245e+00	1.577000e-01	
67	5.796000e-05	5.000000e+00	2.855491e+00	1.603963e-01	
68	5.896000e-05	5.000000e+00	2.855735e+00	1.630901e-01	
69	5.996000e-05	5.000000e+00	2.855980e+00	1.657816e-01	
70	6.096000e-05	5.000000e+00	2.856225e+00	1.684705e-01	
71	6.196000e-05	5.000000e+00	2.856469e+00	1.711571e-01	
72	6.296000e-05	5.000000e+00	2.856713e+00	1.738412e-01	
73	6.396000e-05	5.000000e+00	2.856957e+00	1.765228e-01	
74	6.496000e-05	5.000000e+00	2.857200e+00	1.792020e-01	
75	6.596000e-05	5.000000e+00	2.857444e+00	1.818788e-01	
76	6.696000e-05	5.000000e+00	2.857687e+00	1.845532e-01	
77	6.796000e-05	5.000000e+00	2.857930e+00	1.872251e-01	
78	6.896000e-05	5.000000e+00	2.858172e+00	1.898946e-01	
79	6.996000e-05	5.000000e+00	2.858415e+00	1.925616e-01	
80	7.096000e-05	5.000000e+00	2.858657e+00	1.952263e-01	
81	7.196000e-05	5.000000e+00	2.858899e+00	1.978885e-01	
82	7.296000e-05	5.000000e+00	2.859141e+00	2.005483e-01	
83	7.396000e-05	5.000000e+00	2.859382e+00	2.032057e-01	
84	7.496000e-05	5.000000e+00	2.859624e+00	2.058607e-01	
85	7.596000e-05	5.000000e+00	2.859865e+00	2.085132e-01	
86	7.696000e-05	5.000000e+00	2.860106e+00	2.111634e-01	
87	7.796000e-05	5.000000e+00	2.860346e+00	2.138111e-01	
88	7.896000e-05	5.000000e+00	2.860587e+00	2.164564e-01	
89	7.996000e-05	5.000000e+00	2.860827e+00	2.190994e-01	
90	8.096000e-05	5.000000e+00	2.861067e+00	2.217399e-01	
91	8.196000e-05	5.000000e+00	2.861307e+00	2.243780e-01	
92	8.296000e-05	5.000000e+00	2.861547e+00	2.270138e-01	
93	8.396000e-05	5.000000e+00	2.861786e+00	2.296471e-01	
94	8.496000e-05	5.000000e+00	2.862025e+00	2.322780e-01	
95	8.596000e-05	5.000000e+00	2.862264e+00	2.349066e-01	
96	8.696000e-05	5.000000e+00	2.862503e+00	2.375327e-01	
97	8.796000e-05	5.000000e+00	2.862742e+00	2.401565e-01	
98	8.896000e-05	5.000000e+00	2.862980e+00	2.427779e-01	
99	8.996000e-05	5.000000e+00	2.863218e+00	2.453969e-01	
100	9.096000e-05	5.000000e+00	2.863456e+00	2.480136e-01	
101	9.196000e-05	5.000000e+00	2.863693e+00	2.506278e-01	
102	9.296000e-05	5.000000e+00	2.863931e+00	2.532397e-01	
103	9.396000e-05	5.000000e+00	2.864168e+00	2.558492e-01	
104	9.496000e-05	5.000000e+00	2.864405e+00	2.584563e-01	
105	9.596000e-05	5.000000e+00	2.864642e+00	2.610611e-01	
106	9.696000e-05	5.000000e+00	2.864878e+00	2.636635e-01	
107	9.796000e-05	5.000000e+00	2.865115e+00	2.662635e-01	
108	9.896000e-05	5.000000e+00	2.865351e+00	2.688612e-01	
109	9.996000e-05	5.000000e+00	2.865587e+00	2.714565e-01	
110	1.009600e-04	5.000000e+00	2.865823e+00	2.740495e-01	
111	1.019600e-04	5.000000e+00	2.866058e+00	2.766401e-01	
112	1.029600e-04	5.000000e+00	2.866293e+00	2.792283e-01	

Index   time            v(vref)         v(rc_node)      v(cap_pos)      
--------------------------------------------------------------------------------
113	1.039600e-04	5.000000e+00	2.866529e+00	2.818142e-01	
114	1.049600e-04	5.000000e+00	2.866763e+00	2.843977e-01	
115	1.059600e-04	5.000000e+00	2.866998e+00	2.869789e-01	
116	1.069600e-04	5.000000e+00	2.867233e+00	2.895578e-01	
117	1.079600e-04	5.000000e+00	2.867467e+00	2.921343e-01	
118	1.089600e-04	5.000000e+00	2.867701e+00	2.947084e-01	
119	1.099600e-04	5.000000e+00	2.867935e+00	2.972803e-01	
120	1.109600e-04	5.000000e+00	2.868168e+00	2.998497e-01	
121	1.119600e-04	5.000000e+00	2.868402e+00	3.024169e-01	
122	1.129600e-04	5.000000e+00	2.868635e+00	3.049817e-01	
123	1.139600e-04	5.000000e+00	2.868868e+00	3.075442e-01	
124	1.149600e-04	5.000000e+00	2.869100e+00	3.101044e-01	
125	1.159600e-04	5.000000e+00	2.869333e+00	3.126622e-01	
126	1.169600e-04	5.000000e+00	2.869565e+00	3.152177e-01	
127	1.179600e-04	5.000000e+00	2.869797e+00	3.177709e-01	
128	1.189600e-04	5.000000e+00	2.870029e+00	3.203218e-01	
129	1.199600e-04	5.000000e+00	2.870261e+00	3.228703e-01	
130	1.209600e-04	5.000000e+00	2.870492e+00	3.254165e-01	
131	1.219600e-04	5.000000e+00	2.870724e+00	3.279605e-01	
132	1.229600e-04	5.000000e+00	2.870955e+00	3.305021e-01	
133	1.239600e-04	5.000000e+00	2.871186e+00	3.330414e-01	
134	1.249600e-04	5.000000e+00	2.871416e+00	3.355784e-01	
135	1.259600e-04	5.000000e+00	2.871647e+00	3.381130e-01	
136	1.269600e-04	5.000000e+00	2.871877e+00	3.406454e-01	
137	1.279600e-04	5.000000e+00	2.872107e+00	3.431755e-01	
138	1.289600e-04	5.000000e+00	2.872337e+00	3.457033e-01	
139	1.299600e-04	5.000000e+00	2.872566e+00	3.482288e-01	
140	1.309600e-04	5.000000e+00	2.872796e+00	3.507520e-01	
141	1.319600e-04	5.000000e+00	2.873025e+00	3.532729e-01	
142	1.329600e-04	5.000000e+00	2.873254e+00	3.557915e-01	
143	1.339600e-04	5.000000e+00	2.873483e+00	3.583078e-01	
144	1.349600e-04	5.000000e+00	2.873711e+00	3.608218e-01	
145	1.359600e-04	5.000000e+00	2.873939e+00	3.633336e-01	
146	1.369600e-04	5.000000e+00	2.874168e+00	3.658430e-01	
147	1.379600e-04	5.000000e+00	2.874395e+00	3.683502e-01	
148	1.389600e-04	5.000000e+00	2.874623e+00	3.708551e-01	
149	1.399600e-04	5.000000e+00	2.874851e+00	3.733578e-01	
150	1.409600e-04	5.000000e+00	2.875078e+00	3.758581e-01	
151	1.419600e-04	5.000000e+00	2.875305e+00	3.783562e-01	
152	1.429600e-04	5.000000e+00	2.875532e+00	3.808520e-01	
153	1.439600e-04	5.000000e+00	2.875759e+00	3.833456e-01	
154	1.449600e-04	5.000000e+00	2.875985e+00	3.858368e-01	
155	1.459600e-04	5.000000e+00	2.876211e+00	3.883259e-01	
156	1.469600e-04	5.000000e+00	2.876438e+00	3.908126e-01	
157	1.479600e-04	5.000000e+00	2.876663e+00	3.932971e-01	
158	1.489600e-04	5.000000e+00	2.876889e+00	3.957793e-01	
159	1.499600e-04	5.000000e+00	2.877114e+00	3.982593e-01	
160	1.509600e-04	5.000000e+00	2.877340e+00	4.007371e-01	
161	1.519600e-04	5.000000e+00	2.877565e+00	4.032125e-01	
162	1.529600e-04	5.000000e+00	2.877790e+00	4.056858e-01	
163	1.539600e-04	5.000000e+00	2.878014e+00	4.081567e-01	
164	1.549600e-04	5.000000e+00	2.878239e+00	4.106255e-01	
165	1.559600e-04	5.000000e+00	2.878463e+00	4.130920e-01	
166	1.569600e-04	5.000000e+00	2.878687e+00	4.155562e-01	
167	1.579600e-04	5.000000e+00	2.878911e+00	4.180182e-01	
168	1.589600e-04	5.000000e+00	2.879134e+00	4.204780e-01	
169	1.599600e-04	5.000000e+00	2.879358e+00	4.229355e-01	
170	1.609600e-04	5.000000e+00	2.879581e+00	4.253909e-01	

Index   time            v(vref)         v(rc_node)      v(cap_pos)      
--------------------------------------------------------------------------------
171	1.619600e-04	5.000000e+00	2.879804e+00	4.278439e-01	
172	1.629600e-04	5.000000e+00	2.880027e+00	4.302948e-01	
173	1.639600e-04	5.000000e+00	2.880249e+00	4.327434e-01	
174	1.649600e-04	5.000000e+00	2.880472e+00	4.351898e-01	
175	1.659600e-04	5.000000e+00	2.880694e+00	4.376340e-01	
176	1.669600e-04	5.000000e+00	2.880916e+00	4.400759e-01	
177	1.679600e-04	5.000000e+00	2.881138e+00	4.425156e-01	
178	1.689600e-04	5.000000e+00	2.881359e+00	4.449532e-01	
179	1.699600e-04	5.000000e+00	2.881581e+00	4.473885e-01	
180	1.709600e-04	5.000000e+00	2.881802e+00	4.498215e-01	
181	1.719600e-04	5.000000e+00	2.882023e+00	4.522524e-01	
182	1.729600e-04	5.000000e+00	2.882244e+00	4.546811e-01	
183	1.739600e-04	5.000000e+00	2.882464e+00	4.571075e-01	
184	1.749600e-04	5.000000e+00	2.882685e+00	4.595318e-01	
185	1.759600e-04	5.000000e+00	2.882905e+00	4.619538e-01	
186	1.769600e-04	5.000000e+00	2.883125e+00	4.643737e-01	
187	1.779600e-04	5.000000e+00	2.883345e+00	4.667914e-01	
188	1.789600e-04	5.000000e+00	2.883564e+00	4.692068e-01	
189	1.799600e-04	5.000000e+00	2.883784e+00	4.716201e-01	
190	1.809600e-04	5.000000e+00	2.884003e+00	4.740311e-01	
191	1.819600e-04	5.000000e+00	2.884222e+00	4.764400e-01	
192	1.829600e-04	5.000000e+00	2.884441e+00	4.788467e-01	
193	1.839600e-04	5.000000e+00	2.884659e+00	4.812512e-01	
194	1.849600e-04	5.000000e+00	2.884878e+00	4.836535e-01	
195	1.859600e-04	5.000000e+00	2.885096e+00	4.860536e-01	
196	1.869600e-04	5.000000e+00	2.885314e+00	4.884516e-01	
197	1.879600e-04	5.000000e+00	2.885532e+00	4.908474e-01	
198	1.889600e-04	5.000000e+00	2.885749e+00	4.932410e-01	
199	1.899600e-04	5.000000e+00	2.885967e+00	4.956324e-01	
200	1.909600e-04	5.000000e+00	2.886184e+00	4.980216e-01	
201	1.919600e-04	5.000000e+00	2.886401e+00	5.004087e-01	
202	1.929600e-04	5.000000e+00	2.886618e+00	5.027936e-01	
203	1.939600e-04	5.000000e+00	2.886834e+00	5.051764e-01	
204	1.949600e-04	5.000000e+00	2.887051e+00	5.075569e-01	
205	1.959600e-04	5.000000e+00	2.887267e+00	5.099354e-01	
206	1.969600e-04	5.000000e+00	2.887483e+00	5.123116e-01	
207	1.979600e-04	5.000000e+00	2.887699e+00	5.146857e-01	
208	1.989600e-04	5.000000e+00	2.887914e+00	5.170576e-01	
209	1.999600e-04	5.000000e+00	2.888130e+00	5.194274e-01	
210	2.009600e-04	5.000000e+00	2.888345e+00	5.217950e-01	
211	2.019600e-04	5.000000e+00	2.888560e+00	5.241605e-01	
212	2.029600e-04	5.000000e+00	2.888775e+00	5.265238e-01	
213	2.039600e-04	5.000000e+00	2.888990e+00	5.288850e-01	
214	2.049600e-04	5.000000e+00	2.889204e+00	5.312440e-01	
215	2.059600e-04	5.000000e+00	2.889418e+00	5.336009e-01	
216	2.069600e-04	5.000000e+00	2.889632e+00	5.359557e-01	
217	2.079600e-04	5.000000e+00	2.889846e+00	5.383083e-01	
218	2.089600e-04	5.000000e+00	2.890060e+00	5.406588e-01	
219	2.099600e-04	5.000000e+00	2.890273e+00	5.430071e-01	
220	2.109600e-04	5.000000e+00	2.890487e+00	5.453533e-01	
221	2.119600e-04	5.000000e+00	2.890700e+00	5.476974e-01	
222	2.129600e-04	5.000000e+00	2.890913e+00	5.500393e-01	
223	2.139600e-04	5.000000e+00	2.891125e+00	5.523791e-01	
224	2.149600e-04	5.000000e+00	2.891338e+00	5.547168e-01	
225	2.159600e-04	5.000000e+00	2.891550e+00	5.570524e-01	
226	2.169600e-04	5.000000e+00	2.891762e+00	5.593858e-01	
227	2.179600e-04	5.000000e+00	2.891974e+00	5.617171e-01	
228	2.189600e-04	5.000000e+00	2.892186e+00	5.640463e-01	

Index   time            v(vref)         v(rc_node)      v(cap_pos)      
--------------------------------------------------------------------------------
229	2.199600e-04	5.000000e+00	2.892398e+00	5.663734e-01	
230	2.209600e-04	5.000000e+00	2.892609e+00	5.686984e-01	
231	2.219600e-04	5.000000e+00	2.892820e+00	5.710212e-01	
232	2.229600e-04	5.000000e+00	2.893031e+00	5.733420e-01	
233	2.239600e-04	5.000000e+00	2.893242e+00	5.756606e-01	
234	2.249600e-04	5.000000e+00	2.893452e+00	5.779771e-01	
235	2.259600e-04	5.000000e+00	2.893663e+00	5.802915e-01	
236	2.269600e-04	5.000000e+00	2.893873e+00	5.826039e-01	
237	2.279600e-04	5.000000e+00	2.894083e+00	5.849141e-01	
238	2.289600e-04	5.000000e+00	2.894293e+00	5.872222e-01	
239	2.299600e-04	5.000000e+00	2.894503e+00	5.895282e-01	
240	2.309600e-04	5.000000e+00	2.894712e+00	5.918321e-01	
241	2.319600e-04	5.000000e+00	2.894921e+00	5.941340e-01	
242	2.329600e-04	5.000000e+00	2.895130e+00	5.964337e-01	
243	2.339600e-04	5.000000e+00	2.895339e+00	5.987314e-01	
244	2.349600e-04	5.000000e+00	2.895548e+00	6.010269e-01	
245	2.359600e-04	5.000000e+00	2.895756e+00	6.033204e-01	
246	2.369600e-04	5.000000e+00	2.895965e+00	6.056118e-01	
247	2.379600e-04	5.000000e+00	2.896173e+00	6.079011e-01	
248	2.389600e-04	5.000000e+00	2.896381e+00	6.101884e-01	
249	2.399600e-04	5.000000e+00	2.896589e+00	6.124735e-01	
250	2.409600e-04	5.000000e+00	2.896796e+00	6.147566e-01	
251	2.419600e-04	5.000000e+00	2.897003e+00	6.170376e-01	
252	2.429600e-04	5.000000e+00	2.897211e+00	6.193165e-01	
253	2.439600e-04	5.000000e+00	2.897418e+00	6.215934e-01	
254	2.449600e-04	5.000000e+00	2.897624e+00	6.238682e-01	
255	2.459600e-04	5.000000e+00	2.897831e+00	6.261409e-01	
256	2.469600e-04	5.000000e+00	2.898037e+00	6.284116e-01	
257	2.479600e-04	5.000000e+00	2.898244e+00	6.306801e-01	
258	2.489600e-04	5.000000e+00	2.898450e+00	6.329467e-01	
259	2.499600e-04	5.000000e+00	2.898656e+00	6.352112e-01	
260	2.509600e-04	5.000000e+00	2.898861e+00	6.374736e-01	
261	2.519600e-04	5.000000e+00	2.899067e+00	6.397339e-01	
262	2.529600e-04	5.000000e+00	2.899272e+00	6.419922e-01	
263	2.539600e-04	5.000000e+00	2.899477e+00	6.442485e-01	
264	2.549600e-04	5.000000e+00	2.899682e+00	6.465027e-01	
265	2.559600e-04	5.000000e+00	2.899887e+00	6.487549e-01	
266	2.569600e-04	5.000000e+00	2.900091e+00	6.510050e-01	
267	2.579600e-04	5.000000e+00	2.900296e+00	6.532530e-01	
268	2.589600e-04	5.000000e+00	2.900500e+00	6.554990e-01	
269	2.599600e-04	5.000000e+00	2.900704e+00	6.577430e-01	
270	2.609600e-04	5.000000e+00	2.900908e+00	6.599850e-01	
271	2.619600e-04	5.000000e+00	2.901111e+00	6.622249e-01	
272	2.629600e-04	5.000000e+00	2.901315e+00	6.644627e-01	
273	2.639600e-04	5.000000e+00	2.901518e+00	6.666986e-01	
274	2.649600e-04	5.000000e+00	2.901721e+00	6.689324e-01	
275	2.659600e-04	5.000000e+00	2.901924e+00	6.711642e-01	
276	2.669600e-04	5.000000e+00	2.902127e+00	6.733939e-01	
277	2.679600e-04	5.000000e+00	2.902329e+00	6.756216e-01	
278	2.689600e-04	5.000000e+00	2.902532e+00	6.778473e-01	
279	2.699600e-04	5.000000e+00	2.902734e+00	6.800710e-01	
280	2.709600e-04	5.000000e+00	2.902936e+00	6.822926e-01	
281	2.719600e-04	5.000000e+00	2.903137e+00	6.845123e-01	
282	2.729600e-04	5.000000e+00	2.903339e+00	6.867299e-01	
283	2.739600e-04	5.000000e+00	2.903540e+00	6.889455e-01	
284	2.749600e-04	5.000000e+00	2.903742e+00	6.911591e-01	
285	2.759600e-04	5.000000e+00	2.903943e+00	6.933707e-01	
286	2.769600e-04	5.000000e+00	2.904144e+00	6.955802e-01	

Index   time            v(vref)         v(rc_node)      v(cap_pos)      
--------------------------------------------------------------------------------
287	2.779600e-04	5.000000e+00	2.904344e+00	6.977878e-01	
288	2.789600e-04	5.000000e+00	2.904545e+00	6.999933e-01	
289	2.799600e-04	5.000000e+00	2.904745e+00	7.021969e-01	
290	2.809600e-04	5.000000e+00	2.904945e+00	7.043984e-01	
291	2.819600e-04	5.000000e+00	2.905145e+00	7.065980e-01	
292	2.829600e-04	5.000000e+00	2.905345e+00	7.087955e-01	
293	2.839600e-04	5.000000e+00	2.905545e+00	7.109911e-01	
294	2.849600e-04	5.000000e+00	2.905744e+00	7.131846e-01	
295	2.859600e-04	5.000000e+00	2.905943e+00	7.153762e-01	
296	2.869600e-04	5.000000e+00	2.906142e+00	7.175658e-01	
297	2.879600e-04	5.000000e+00	2.906341e+00	7.197534e-01	
298	2.889600e-04	5.000000e+00	2.906540e+00	7.219390e-01	
299	2.899600e-04	5.000000e+00	2.906738e+00	7.241226e-01	
300	2.909600e-04	5.000000e+00	2.906937e+00	7.263042e-01	
301	2.919600e-04	5.000000e+00	2.907135e+00	7.284838e-01	
302	2.929600e-04	5.000000e+00	2.907333e+00	7.306615e-01	
303	2.939600e-04	5.000000e+00	2.907531e+00	7.328372e-01	
304	2.949600e-04	5.000000e+00	2.907728e+00	7.350109e-01	
305	2.959600e-04	5.000000e+00	2.907926e+00	7.371826e-01	
306	2.969600e-04	5.000000e+00	2.908123e+00	7.393524e-01	
307	2.979600e-04	5.000000e+00	2.908320e+00	7.415202e-01	
308	2.989600e-04	5.000000e+00	2.908517e+00	7.436860e-01	
309	2.999600e-04	5.000000e+00	2.908714e+00	7.458498e-01	
310	3.009600e-04	5.000000e+00	2.908910e+00	7.480117e-01	
311	3.019600e-04	5.000000e+00	2.909107e+00	7.501716e-01	
312	3.029600e-04	5.000000e+00	2.909303e+00	7.523296e-01	
313	3.039600e-04	5.000000e+00	2.909499e+00	7.544856e-01	
314	3.049600e-04	5.000000e+00	2.909695e+00	7.566396e-01	
315	3.059600e-04	5.000000e+00	2.909890e+00	7.587917e-01	
316	3.069600e-04	5.000000e+00	2.910086e+00	7.609418e-01	
317	3.079600e-04	5.000000e+00	2.910281e+00	7.630900e-01	
318	3.089600e-04	5.000000e+00	2.910476e+00	7.652362e-01	
319	3.099600e-04	5.000000e+00	2.910671e+00	7.673804e-01	
320	3.109600e-04	5.000000e+00	2.910866e+00	7.695228e-01	
321	3.119600e-04	5.000000e+00	2.911060e+00	7.716631e-01	
322	3.129600e-04	5.000000e+00	2.911255e+00	7.738016e-01	
323	3.139600e-04	5.000000e+00	2.911449e+00	7.759380e-01	
324	3.149600e-04	5.000000e+00	2.911643e+00	7.780726e-01	
325	3.159600e-04	5.000000e+00	2.911837e+00	7.802052e-01	
326	3.169600e-04	5.000000e+00	2.912031e+00	7.823358e-01	
327	3.179600e-04	5.000000e+00	2.912224e+00	7.844646e-01	
328	3.189600e-04	5.000000e+00	2.912417e+00	7.865914e-01	
329	3.199600e-04	5.000000e+00	2.912611e+00	7.887162e-01	
330	3.209600e-04	5.000000e+00	2.912804e+00	7.908392e-01	
331	3.219600e-04	5.000000e+00	2.912996e+00	7.929602e-01	
332	3.229600e-04	5.000000e+00	2.913189e+00	7.950792e-01	
333	3.239600e-04	5.000000e+00	2.913381e+00	7.971964e-01	
334	3.249600e-04	5.000000e+00	2.913574e+00	7.993116e-01	
335	3.259600e-04	5.000000e+00	2.913766e+00	8.014249e-01	
336	3.269600e-04	5.000000e+00	2.913958e+00	8.035363e-01	
337	3.279600e-04	5.000000e+00	2.914150e+00	8.056457e-01	
338	3.289600e-04	5.000000e+00	2.914341e+00	8.077533e-01	
339	3.299600e-04	5.000000e+00	2.914533e+00	8.098589e-01	
340	3.309600e-04	5.000000e+00	2.914724e+00	8.119626e-01	
341	3.319600e-04	5.000000e+00	2.914915e+00	8.140644e-01	
342	3.329600e-04	5.000000e+00	2.915106e+00	8.161643e-01	
343	3.339600e-04	5.000000e+00	2.915297e+00	8.182623e-01	
344	3.349600e-04	5.000000e+00	2.915487e+00	8.203584e-01	

Index   time            v(vref)         v(rc_node)      v(cap_pos)      
--------------------------------------------------------------------------------
345	3.359600e-04	5.000000e+00	2.915678e+00	8.224526e-01	
346	3.369600e-04	5.000000e+00	2.915868e+00	8.245449e-01	
347	3.379600e-04	5.000000e+00	2.916058e+00	8.266352e-01	
348	3.389600e-04	5.000000e+00	2.916248e+00	8.287237e-01	
349	3.399600e-04	5.000000e+00	2.916437e+00	8.308103e-01	
350	3.409600e-04	5.000000e+00	2.916627e+00	8.328950e-01	
351	3.419600e-04	5.000000e+00	2.916816e+00	8.349777e-01	
352	3.429600e-04	5.000000e+00	2.917005e+00	8.370586e-01	
353	3.439600e-04	5.000000e+00	2.917194e+00	8.391376e-01	
354	3.449600e-04	5.000000e+00	2.917383e+00	8.412148e-01	
355	3.459600e-04	5.000000e+00	2.917572e+00	8.432900e-01	
356	3.469600e-04	5.000000e+00	2.917760e+00	8.453633e-01	
357	3.479600e-04	5.000000e+00	2.917949e+00	8.474348e-01	
358	3.489600e-04	5.000000e+00	2.918137e+00	8.495043e-01	
359	3.499600e-04	5.000000e+00	2.918325e+00	8.515720e-01	
360	3.509600e-04	5.000000e+00	2.918513e+00	8.536378e-01	
361	3.519600e-04	5.000000e+00	2.918700e+00	8.557018e-01	
362	3.529600e-04	5.000000e+00	2.918888e+00	8.577638e-01	
363	3.539600e-04	5.000000e+00	2.919075e+00	8.598240e-01	
364	3.549600e-04	5.000000e+00	2.919262e+00	8.618824e-01	
365	3.559600e-04	5.000000e+00	2.919449e+00	8.639388e-01	
366	3.569600e-04	5.000000e+00	2.919636e+00	8.659934e-01	
367	3.579600e-04	5.000000e+00	2.919822e+00	8.680461e-01	
368	3.589600e-04	5.000000e+00	2.920009e+00	8.700969e-01	
369	3.599600e-04	5.000000e+00	2.920195e+00	8.721459e-01	
370	3.609600e-04	5.000000e+00	2.920381e+00	8.741930e-01	
371	3.619600e-04	5.000000e+00	2.920567e+00	8.762383e-01	
372	3.629600e-04	5.000000e+00	2.920753e+00	8.782817e-01	
373	3.639600e-04	5.000000e+00	2.920938e+00	8.803232e-01	
374	3.649600e-04	5.000000e+00	2.921124e+00	8.823629e-01	
375	3.659600e-04	5.000000e+00	2.921309e+00	8.844007e-01	
376	3.669600e-04	5.000000e+00	2.921494e+00	8.864367e-01	
377	3.679600e-04	5.000000e+00	2.921679e+00	8.884709e-01	
378	3.689600e-04	5.000000e+00	2.921864e+00	8.905031e-01	
379	3.699600e-04	5.000000e+00	2.922049e+00	8.925336e-01	
380	3.709600e-04	5.000000e+00	2.922233e+00	8.945622e-01	
381	3.719600e-04	5.000000e+00	2.922417e+00	8.965889e-01	
382	3.729600e-04	5.000000e+00	2.922601e+00	8.986138e-01	
383	3.739600e-04	5.000000e+00	2.922785e+00	9.006369e-01	
384	3.749600e-04	5.000000e+00	2.922969e+00	9.026581e-01	
385	3.759600e-04	5.000000e+00	2.923153e+00	9.046775e-01	
386	3.769600e-04	5.000000e+00	2.923336e+00	9.066951e-01	
387	3.779600e-04	5.000000e+00	2.923519e+00	9.087108e-01	
388	3.789600e-04	5.000000e+00	2.923702e+00	9.107247e-01	
389	3.799600e-04	5.000000e+00	2.923885e+00	9.127368e-01	
390	3.809600e-04	5.000000e+00	2.924068e+00	9.147470e-01	
391	3.819600e-04	5.000000e+00	2.924250e+00	9.167554e-01	
392	3.829600e-04	5.000000e+00	2.924433e+00	9.187620e-01	
393	3.839600e-04	5.000000e+00	2.924615e+00	9.207668e-01	
394	3.849600e-04	5.000000e+00	2.924797e+00	9.227697e-01	
395	3.859600e-04	5.000000e+00	2.924979e+00	9.247708e-01	
396	3.869600e-04	5.000000e+00	2.925161e+00	9.267701e-01	
397	3.879600e-04	5.000000e+00	2.925343e+00	9.287676e-01	
398	3.889600e-04	5.000000e+00	2.925524e+00	9.307633e-01	
399	3.899600e-04	5.000000e+00	2.925705e+00	9.327571e-01	
400	3.909600e-04	5.000000e+00	2.925886e+00	9.347492e-01	
401	3.919600e-04	5.000000e+00	2.926067e+00	9.367394e-01	
402	3.929600e-04	5.000000e+00	2.926248e+00	9.387278e-01	

Index   time            v(vref)         v(rc_node)      v(cap_pos)      
--------------------------------------------------------------------------------
403	3.939600e-04	5.000000e+00	2.926429e+00	9.407144e-01	
404	3.949600e-04	5.000000e+00	2.926609e+00	9.426992e-01	
405	3.959600e-04	5.000000e+00	2.926789e+00	9.446822e-01	
406	3.969600e-04	5.000000e+00	2.926969e+00	9.466635e-01	
407	3.979600e-04	5.000000e+00	2.927149e+00	9.486429e-01	
408	3.989600e-04	5.000000e+00	2.927329e+00	9.506205e-01	
409	3.999600e-04	5.000000e+00	2.927509e+00	9.525963e-01	
410	4.009600e-04	5.000000e+00	2.927688e+00	9.545703e-01	
411	4.019600e-04	5.000000e+00	2.927868e+00	9.565425e-01	
412	4.029600e-04	5.000000e+00	2.928047e+00	9.585129e-01	
413	4.039600e-04	5.000000e+00	2.928226e+00	9.604816e-01	
414	4.049600e-04	5.000000e+00	2.928404e+00	9.624484e-01	
415	4.059600e-04	5.000000e+00	2.928583e+00	9.644135e-01	
416	4.069600e-04	5.000000e+00	2.928762e+00	9.663768e-01	
417	4.079600e-04	5.000000e+00	2.928940e+00	9.683383e-01	
418	4.089600e-04	5.000000e+00	2.929118e+00	9.702980e-01	
419	4.099600e-04	5.000000e+00	2.929296e+00	9.722559e-01	
420	4.109600e-04	5.000000e+00	2.929474e+00	9.742121e-01	
421	4.119600e-04	5.000000e+00	2.929651e+00	9.761664e-01	
422	4.129600e-04	5.000000e+00	2.929829e+00	9.781190e-01	
423	4.139600e-04	5.000000e+00	2.930006e+00	9.800699e-01	
424	4.149600e-04	5.000000e+00	2.930184e+00	9.820189e-01	
425	4.159600e-04	5.000000e+00	2.930361e+00	9.839662e-01	
426	4.169600e-04	5.000000e+00	2.930537e+00	9.859117e-01	
427	4.179600e-04	5.000000e+00	2.930714e+00	9.878554e-01	
428	4.189600e-04	5.000000e+00	2.930891e+00	9.897974e-01	
429	4.199600e-04	5.000000e+00	2.931067e+00	9.917376e-01	
430	4.209600e-04	5.000000e+00	2.931243e+00	9.936761e-01	
431	4.219600e-04	5.000000e+00	2.931419e+00	9.956128e-01	
432	4.229600e-04	5.000000e+00	2.931595e+00	9.975477e-01	
433	4.239600e-04	5.000000e+00	2.931771e+00	9.994809e-01	
434	4.249600e-04	5.000000e+00	2.931947e+00	1.001412e+00	
435	4.259600e-04	5.000000e+00	2.932122e+00	1.003342e+00	
436	4.269600e-04	5.000000e+00	2.932297e+00	1.005270e+00	
437	4.279600e-04	5.000000e+00	2.932472e+00	1.007196e+00	
438	4.289600e-04	5.000000e+00	2.932647e+00	1.009120e+00	
439	4.299600e-04	5.000000e+00	2.932822e+00	1.011043e+00	
440	4.309600e-04	5.000000e+00	2.932997e+00	1.012964e+00	
441	4.319600e-04	5.000000e+00	2.933171e+00	1.014883e+00	
442	4.329600e-04	5.000000e+00	2.933346e+00	1.016801e+00	
443	4.339600e-04	5.000000e+00	2.933520e+00	1.018716e+00	
444	4.349600e-04	5.000000e+00	2.933694e+00	1.020630e+00	
445	4.359600e-04	5.000000e+00	2.933867e+00	1.022542e+00	
446	4.369600e-04	5.000000e+00	2.934041e+00	1.024453e+00	
447	4.379600e-04	5.000000e+00	2.934215e+00	1.026361e+00	
448	4.389600e-04	5.000000e+00	2.934388e+00	1.028268e+00	
449	4.399600e-04	5.000000e+00	2.934561e+00	1.030174e+00	
450	4.409600e-04	5.000000e+00	2.934734e+00	1.032077e+00	
451	4.419600e-04	5.000000e+00	2.934907e+00	1.033979e+00	
452	4.429600e-04	5.000000e+00	2.935080e+00	1.035879e+00	
453	4.439600e-04	5.000000e+00	2.935252e+00	1.037777e+00	
454	4.449600e-04	5.000000e+00	2.935425e+00	1.039674e+00	
455	4.459600e-04	5.000000e+00	2.935597e+00	1.041569e+00	
456	4.469600e-04	5.000000e+00	2.935769e+00	1.043462e+00	
457	4.479600e-04	5.000000e+00	2.935941e+00	1.045354e+00	
458	4.489600e-04	5.000000e+00	2.936113e+00	1.047243e+00	
459	4.499600e-04	5.000000e+00	2.936285e+00	1.049131e+00	
460	4.509600e-04	5.000000e+00	2.936456e+00	1.051018e+00	

Index   time            v(vref)         v(rc_node)      v(cap_pos)      
--------------------------------------------------------------------------------
461	4.519600e-04	5.000000e+00	2.936627e+00	1.052902e+00	
462	4.529600e-04	5.000000e+00	2.936799e+00	1.054785e+00	
463	4.539600e-04	5.000000e+00	2.936970e+00	1.056666e+00	
464	4.549600e-04	5.000000e+00	2.937141e+00	1.058546e+00	
465	4.559600e-04	5.000000e+00	2.937311e+00	1.060423e+00	
466	4.569600e-04	5.000000e+00	2.937482e+00	1.062299e+00	
467	4.579600e-04	5.000000e+00	2.937652e+00	1.064174e+00	
468	4.589600e-04	5.000000e+00	2.937822e+00	1.066046e+00	
469	4.599600e-04	5.000000e+00	2.937992e+00	1.067917e+00	
470	4.609600e-04	5.000000e+00	2.938162e+00	1.069787e+00	
471	4.619600e-04	5.000000e+00	2.938332e+00	1.071654e+00	
472	4.629600e-04	5.000000e+00	2.938502e+00	1.073520e+00	
473	4.639600e-04	5.000000e+00	2.938671e+00	1.075384e+00	
474	4.649600e-04	5.000000e+00	2.938841e+00	1.077246e+00	
475	4.659600e-04	5.000000e+00	2.939010e+00	1.079107e+00	
476	4.669600e-04	5.000000e+00	2.939179e+00	1.080966e+00	
477	4.679600e-04	5.000000e+00	2.939348e+00	1.082824e+00	
478	4.689600e-04	5.000000e+00	2.939516e+00	1.084679e+00	
479	4.699600e-04	5.000000e+00	2.939685e+00	1.086533e+00	
480	4.709600e-04	5.000000e+00	2.939853e+00	1.088386e+00	
481	4.719600e-04	5.000000e+00	2.940021e+00	1.090236e+00	
482	4.729600e-04	5.000000e+00	2.940190e+00	1.092085e+00	
483	4.739600e-04	5.000000e+00	2.940357e+00	1.093932e+00	
484	4.749600e-04	5.000000e+00	2.940525e+00	1.095778e+00	
485	4.759600e-04	5.000000e+00	2.940693e+00	1.097622e+00	
486	4.769600e-04	5.000000e+00	2.940860e+00	1.099464e+00	
487	4.779600e-04	5.000000e+00	2.941028e+00	1.101305e+00	
488	4.789600e-04	5.000000e+00	2.941195e+00	1.103144e+00	
489	4.799600e-04	5.000000e+00	2.941362e+00	1.104981e+00	
490	4.809600e-04	5.000000e+00	2.941529e+00	1.106816e+00	
491	4.819600e-04	5.000000e+00	2.941695e+00	1.108650e+00	
492	4.829600e-04	5.000000e+00	2.941862e+00	1.110483e+00	
493	4.839600e-04	5.000000e+00	2.942028e+00	1.112313e+00	
494	4.849600e-04	5.000000e+00	2.942195e+00	1.114142e+00	
495	4.859600e-04	5.000000e+00	2.942361e+00	1.115969e+00	
496	4.869600e-04	5.000000e+00	2.942527e+00	1.117795e+00	
497	4.879600e-04	5.000000e+00	2.942693e+00	1.119619e+00	
498	4.889600e-04	5.000000e+00	2.942858e+00	1.121441e+00	
499	4.899600e-04	5.000000e+00	2.943024e+00	1.123261e+00	
500	4.909600e-04	5.000000e+00	2.943189e+00	1.125080e+00	
501	4.919600e-04	5.000000e+00	2.943354e+00	1.126898e+00	
502	4.929600e-04	5.000000e+00	2.943519e+00	1.128713e+00	
503	4.939600e-04	5.000000e+00	2.943684e+00	1.130527e+00	
504	4.949600e-04	5.000000e+00	2.943849e+00	1.132340e+00	
505	4.959600e-04	5.000000e+00	2.944014e+00	1.134150e+00	
506	4.969600e-04	5.000000e+00	2.944178e+00	1.135959e+00	
507	4.979600e-04	5.000000e+00	2.944342e+00	1.137767e+00	
508	4.989600e-04	5.000000e+00	2.944507e+00	1.139573e+00	
509	4.999600e-04	5.000000e+00	2.944671e+00	1.141377e+00	
510	5.009600e-04	5.000000e+00	2.944834e+00	1.143179e+00	
511	5.019600e-04	5.000000e+00	2.944998e+00	1.144980e+00	
512	5.029600e-04	5.000000e+00	2.945162e+00	1.146779e+00	
513	5.039600e-04	5.000000e+00	2.945325e+00	1.148577e+00	
514	5.049600e-04	5.000000e+00	2.945488e+00	1.150373e+00	
515	5.059600e-04	5.000000e+00	2.945652e+00	1.152167e+00	
516	5.069600e-04	5.000000e+00	2.945815e+00	1.153960e+00	
517	5.079600e-04	5.000000e+00	2.945977e+00	1.155751e+00	
518	5.089600e-04	5.000000e+00	2.946140e+00	1.157540e+00	

Index   time            v(vref)         v(rc_node)      v(cap_pos)      
--------------------------------------------------------------------------------
519	5.099600e-04	5.000000e+00	2.946303e+00	1.159328e+00	
520	5.109600e-04	5.000000e+00	2.946465e+00	1.161114e+00	
521	5.119600e-04	5.000000e+00	2.946627e+00	1.162899e+00	
522	5.129600e-04	5.000000e+00	2.946789e+00	1.164681e+00	
523	5.139600e-04	5.000000e+00	2.946951e+00	1.166463e+00	
524	5.149600e-04	5.000000e+00	2.947113e+00	1.168242e+00	
525	5.159600e-04	5.000000e+00	2.947275e+00	1.170021e+00	
526	5.169600e-04	5.000000e+00	2.947436e+00	1.171797e+00	
527	5.179600e-04	5.000000e+00	2.947597e+00	1.173572e+00	
528	5.189600e-04	5.000000e+00	2.947759e+00	1.175345e+00	
529	5.199600e-04	5.000000e+00	2.947920e+00	1.177117e+00	
530	5.209600e-04	5.000000e+00	2.948081e+00	1.178887e+00	
531	5.219600e-04	5.000000e+00	2.948241e+00	1.180655e+00	
532	5.229600e-04	5.000000e+00	2.948402e+00	1.182422e+00	
533	5.239600e-04	5.000000e+00	2.948562e+00	1.184187e+00	
534	5.249600e-04	5.000000e+00	2.948723e+00	1.185951e+00	
535	5.259600e-04	5.000000e+00	2.948883e+00	1.187713e+00	
536	5.269600e-04	5.000000e+00	2.949043e+00	1.189473e+00	
537	5.279600e-04	5.000000e+00	2.949203e+00	1.191232e+00	
538	5.289600e-04	5.000000e+00	2.949363e+00	1.192989e+00	
539	5.299600e-04	5.000000e+00	2.949522e+00	1.194744e+00	
540	5.309600e-04	5.000000e+00	2.949682e+00	1.196498e+00	
541	5.319600e-04	5.000000e+00	2.949841e+00	1.198251e+00	
542	5.329600e-04	5.000000e+00	2.950000e+00	1.200002e+00	
543	5.339600e-04	5.000000e+00	2.950159e+00	1.201751e+00	
544	5.349600e-04	5.000000e+00	2.950318e+00	1.203498e+00	
545	5.359600e-04	5.000000e+00	2.950477e+00	1.205244e+00	
546	5.369600e-04	5.000000e+00	2.950635e+00	1.206989e+00	
547	5.379600e-04	5.000000e+00	2.950794e+00	1.208732e+00	
548	5.389600e-04	5.000000e+00	2.950952e+00	1.210473e+00	
549	5.399600e-04	5.000000e+00	2.951110e+00	1.212213e+00	
550	5.409600e-04	5.000000e+00	2.951268e+00	1.213951e+00	
551	5.419600e-04	5.000000e+00	2.951426e+00	1.215687e+00	
552	5.429600e-04	5.000000e+00	2.951584e+00	1.217422e+00	
553	5.439600e-04	5.000000e+00	2.951741e+00	1.219156e+00	
554	5.449600e-04	5.000000e+00	2.951899e+00	1.220887e+00	
555	5.459600e-04	5.000000e+00	2.952056e+00	1.222618e+00	
556	5.469600e-04	5.000000e+00	2.952213e+00	1.224346e+00	
557	5.479600e-04	5.000000e+00	2.952370e+00	1.226073e+00	
558	5.489600e-04	5.000000e+00	2.952527e+00	1.227799e+00	
559	5.499600e-04	5.000000e+00	2.952684e+00	1.229523e+00	
560	5.509600e-04	5.000000e+00	2.952840e+00	1.231245e+00	
561	5.519600e-04	5.000000e+00	2.952997e+00	1.232966e+00	
562	5.529600e-04	5.000000e+00	2.953153e+00	1.234685e+00	
563	5.539600e-04	5.000000e+00	2.953309e+00	1.236403e+00	
564	5.549600e-04	5.000000e+00	2.953465e+00	1.238119e+00	
565	5.559600e-04	5.000000e+00	2.953621e+00	1.239834e+00	
566	5.569600e-04	5.000000e+00	2.953777e+00	1.241547e+00	
567	5.579600e-04	5.000000e+00	2.953933e+00	1.243258e+00	
568	5.589600e-04	5.000000e+00	2.954088e+00	1.244968e+00	
569	5.599600e-04	5.000000e+00	2.954243e+00	1.246676e+00	
570	5.609600e-04	5.000000e+00	2.954398e+00	1.248383e+00	
571	5.619600e-04	5.000000e+00	2.954553e+00	1.250088e+00	
572	5.629600e-04	5.000000e+00	2.954708e+00	1.251792e+00	
573	5.639600e-04	5.000000e+00	2.954863e+00	1.253494e+00	
574	5.649600e-04	5.000000e+00	2.955018e+00	1.255195e+00	
575	5.659600e-04	5.000000e+00	2.955172e+00	1.256894e+00	
576	5.669600e-04	5.000000e+00	2.955326e+00	1.258591e+00	

Index   time            v(vref)         v(rc_node)      v(cap_pos)      
--------------------------------------------------------------------------------
577	5.679600e-04	5.000000e+00	2.955481e+00	1.260287e+00	
578	5.689600e-04	5.000000e+00	2.955635e+00	1.261982e+00	
579	5.699600e-04	5.000000e+00	2.955789e+00	1.263675e+00	
580	5.709600e-04	5.000000e+00	2.955942e+00	1.265366e+00	
581	5.719600e-04	5.000000e+00	2.956096e+00	1.267056e+00	
582	5.729600e-04	5.000000e+00	2.956249e+00	1.268744e+00	
583	5.739600e-04	5.000000e+00	2.956403e+00	1.270431e+00	
584	5.749600e-04	5.000000e+00	2.956556e+00	1.272116e+00	
585	5.759600e-04	5.000000e+00	2.956709e+00	1.273800e+00	
586	5.769600e-04	5.000000e+00	2.956862e+00	1.275482e+00	
587	5.779600e-04	5.000000e+00	2.957015e+00	1.277162e+00	
588	5.789600e-04	5.000000e+00	2.957167e+00	1.278842e+00	
589	5.799600e-04	5.000000e+00	2.957320e+00	1.280519e+00	
590	5.809600e-04	5.000000e+00	2.957472e+00	1.282195e+00	
591	5.819600e-04	5.000000e+00	2.957625e+00	1.283870e+00	
592	5.829600e-04	5.000000e+00	2.957777e+00	1.285543e+00	
593	5.839600e-04	5.000000e+00	2.957929e+00	1.287214e+00	
594	5.849600e-04	5.000000e+00	2.958080e+00	1.288884e+00	
595	5.859600e-04	5.000000e+00	2.958232e+00	1.290553e+00	
596	5.869600e-04	5.000000e+00	2.958384e+00	1.292219e+00	
597	5.879600e-04	5.000000e+00	2.958535e+00	1.293885e+00	
598	5.889600e-04	5.000000e+00	2.958686e+00	1.295549e+00	
599	5.899600e-04	5.000000e+00	2.958837e+00	1.297211e+00	
600	5.909600e-04	5.000000e+00	2.958988e+00	1.298872e+00	
601	5.919600e-04	5.000000e+00	2.959139e+00	1.300531e+00	
602	5.929600e-04	5.000000e+00	2.959290e+00	1.302189e+00	
603	5.939600e-04	5.000000e+00	2.959441e+00	1.303846e+00	
604	5.949600e-04	5.000000e+00	2.959591e+00	1.305500e+00	
605	5.959600e-04	5.000000e+00	2.959741e+00	1.307154e+00	
606	5.969600e-04	5.000000e+00	2.959891e+00	1.308806e+00	
607	5.979600e-04	5.000000e+00	2.960041e+00	1.310456e+00	
608	5.989600e-04	5.000000e+00	2.960191e+00	1.312105e+00	
609	5.999600e-04	5.000000e+00	2.960341e+00	1.313752e+00	
610	6.009600e-04	5.000000e+00	2.960491e+00	1.315398e+00	
611	6.019600e-04	5.000000e+00	2.960640e+00	1.317042e+00	
612	6.029600e-04	5.000000e+00	2.960790e+00	1.318685e+00	
613	6.039600e-04	5.000000e+00	2.960939e+00	1.320326e+00	
614	6.049600e-04	5.000000e+00	2.961088e+00	1.321966e+00	
615	6.059600e-04	5.000000e+00	2.961237e+00	1.323605e+00	
616	6.069600e-04	5.000000e+00	2.961386e+00	1.325242e+00	
617	6.079600e-04	5.000000e+00	2.961534e+00	1.326877e+00	
618	6.089600e-04	5.000000e+00	2.961683e+00	1.328511e+00	
619	6.099600e-04	5.000000e+00	2.961831e+00	1.330143e+00	
620	6.109600e-04	5.000000e+00	2.961979e+00	1.331774e+00	
621	6.119600e-04	5.000000e+00	2.962128e+00	1.333404e+00	
622	6.129600e-04	5.000000e+00	2.962276e+00	1.335032e+00	
623	6.139600e-04	5.000000e+00	2.962423e+00	1.336658e+00	
624	6.149600e-04	5.000000e+00	2.962571e+00	1.338283e+00	
625	6.159600e-04	5.000000e+00	2.962719e+00	1.339907e+00	
626	6.169600e-04	5.000000e+00	2.962866e+00	1.341529e+00	
627	6.179600e-04	5.000000e+00	2.963014e+00	1.343150e+00	
628	6.189600e-04	5.000000e+00	2.963161e+00	1.344769e+00	
629	6.199600e-04	5.000000e+00	2.963308e+00	1.346386e+00	
630	6.209600e-04	5.000000e+00	2.963455e+00	1.348002e+00	
631	6.219600e-04	5.000000e+00	2.963602e+00	1.349617e+00	
632	6.229600e-04	5.000000e+00	2.963748e+00	1.351230e+00	
633	6.239600e-04	5.000000e+00	2.963895e+00	1.352842e+00	
634	6.249600e-04	5.000000e+00	2.964041e+00	1.354453e+00	

Index   time            v(vref)         v(rc_node)      v(cap_pos)      
--------------------------------------------------------------------------------
635	6.259600e-04	5.000000e+00	2.964187e+00	1.356061e+00	
636	6.269600e-04	5.000000e+00	2.964334e+00	1.357669e+00	
637	6.279600e-04	5.000000e+00	2.964480e+00	1.359275e+00	
638	6.289600e-04	5.000000e+00	2.964625e+00	1.360879e+00	
639	6.299600e-04	5.000000e+00	2.964771e+00	1.362482e+00	
640	6.309600e-04	5.000000e+00	2.964917e+00	1.364084e+00	
641	6.319600e-04	5.000000e+00	2.965062e+00	1.365684e+00	
642	6.329600e-04	5.000000e+00	2.965208e+00	1.367283e+00	
643	6.339600e-04	5.000000e+00	2.965353e+00	1.368880e+00	
644	6.349600e-04	5.000000e+00	2.965498e+00	1.370475e+00	
645	6.359600e-04	5.000000e+00	2.965643e+00	1.372070e+00	
646	6.369600e-04	5.000000e+00	2.965788e+00	1.373663e+00	
647	6.379600e-04	5.000000e+00	2.965932e+00	1.375254e+00	
648	6.389600e-04	5.000000e+00	2.966077e+00	1.376844e+00	
649	6.399600e-04	5.000000e+00	2.966221e+00	1.378433e+00	
650	6.409600e-04	5.000000e+00	2.966365e+00	1.380020e+00	
651	6.419600e-04	5.000000e+00	2.966510e+00	1.381605e+00	
652	6.429600e-04	5.000000e+00	2.966654e+00	1.383189e+00	
653	6.439600e-04	5.000000e+00	2.966797e+00	1.384772e+00	
654	6.449600e-04	5.000000e+00	2.966941e+00	1.386353e+00	
655	6.459600e-04	5.000000e+00	2.967085e+00	1.387933e+00	
656	6.469600e-04	5.000000e+00	2.967228e+00	1.389512e+00	
657	6.479600e-04	5.000000e+00	2.967372e+00	1.391089e+00	
658	6.489600e-04	5.000000e+00	2.967515e+00	1.392664e+00	
659	6.499600e-04	5.000000e+00	2.967658e+00	1.394238e+00	
660	6.509600e-04	5.000000e+00	2.967801e+00	1.395811e+00	
661	6.519600e-04	5.000000e+00	2.967944e+00	1.397382e+00	
662	6.529600e-04	5.000000e+00	2.968087e+00	1.398952e+00	
663	6.539600e-04	5.000000e+00	2.968229e+00	1.400521e+00	
664	6.549600e-04	5.000000e+00	2.968372e+00	1.402088e+00	
665	6.559600e-04	5.000000e+00	2.968514e+00	1.403653e+00	
666	6.569600e-04	5.000000e+00	2.968656e+00	1.405217e+00	
667	6.579600e-04	5.000000e+00	2.968798e+00	1.406780e+00	
668	6.589600e-04	5.000000e+00	2.968940e+00	1.408341e+00	
669	6.599600e-04	5.000000e+00	2.969082e+00	1.409901e+00	
670	6.609600e-04	5.000000e+00	2.969224e+00	1.411460e+00	
671	6.619600e-04	5.000000e+00	2.969365e+00	1.413017e+00	
672	6.629600e-04	5.000000e+00	2.969507e+00	1.414573e+00	
673	6.639600e-04	5.000000e+00	2.969648e+00	1.416127e+00	
674	6.649600e-04	5.000000e+00	2.969789e+00	1.417680e+00	
675	6.659600e-04	5.000000e+00	2.969930e+00	1.419231e+00	
676	6.669600e-04	5.000000e+00	2.970071e+00	1.420781e+00	
677	6.679600e-04	5.000000e+00	2.970212e+00	1.422330e+00	
678	6.689600e-04	5.000000e+00	2.970352e+00	1.423877e+00	
679	6.699600e-04	5.000000e+00	2.970493e+00	1.425422e+00	
680	6.709600e-04	5.000000e+00	2.970633e+00	1.426967e+00	
681	6.719600e-04	5.000000e+00	2.970774e+00	1.428510e+00	
682	6.729600e-04	5.000000e+00	2.970914e+00	1.430051e+00	
683	6.739600e-04	5.000000e+00	2.971054e+00	1.431592e+00	
684	6.749600e-04	5.000000e+00	2.971194e+00	1.433130e+00	
685	6.759600e-04	5.000000e+00	2.971333e+00	1.434668e+00	
686	6.769600e-04	5.000000e+00	2.971473e+00	1.436204e+00	
687	6.779600e-04	5.000000e+00	2.971613e+00	1.437738e+00	
688	6.789600e-04	5.000000e+00	2.971752e+00	1.439271e+00	
689	6.799600e-04	5.000000e+00	2.971891e+00	1.440803e+00	
690	6.809600e-04	5.000000e+00	2.972030e+00	1.442334e+00	
691	6.819600e-04	5.000000e+00	2.972169e+00	1.443863e+00	
692	6.829600e-04	5.000000e+00	2.972308e+00	1.445390e+00	

Index   time            v(vref)         v(rc_node)      v(cap_pos)      
--------------------------------------------------------------------------------
693	6.839600e-04	5.000000e+00	2.972447e+00	1.446916e+00	
694	6.849600e-04	5.000000e+00	2.972586e+00	1.448441e+00	
695	6.859600e-04	5.000000e+00	2.972724e+00	1.449965e+00	
696	6.869600e-04	5.000000e+00	2.972862e+00	1.451487e+00	
697	6.879600e-04	5.000000e+00	2.973001e+00	1.453007e+00	
698	6.889600e-04	5.000000e+00	2.973139e+00	1.454527e+00	
699	6.899600e-04	5.000000e+00	2.973277e+00	1.456045e+00	
700	6.909600e-04	5.000000e+00	2.973415e+00	1.457561e+00	
701	6.919600e-04	5.000000e+00	2.973552e+00	1.459076e+00	
702	6.929600e-04	5.000000e+00	2.973690e+00	1.460590e+00	
703	6.939600e-04	5.000000e+00	2.973828e+00	1.462103e+00	
704	6.949600e-04	5.000000e+00	2.973965e+00	1.463614e+00	
705	6.959600e-04	5.000000e+00	2.974102e+00	1.465123e+00	
706	6.969600e-04	5.000000e+00	2.974239e+00	1.466632e+00	
707	6.979600e-04	5.000000e+00	2.974376e+00	1.468138e+00	
708	6.989600e-04	5.000000e+00	2.974513e+00	1.469644e+00	
709	6.999600e-04	5.000000e+00	2.974650e+00	1.471148e+00	
710	7.009600e-04	5.000000e+00	2.974786e+00	1.472651e+00	
711	7.019600e-04	5.000000e+00	2.974923e+00	1.474153e+00	
712	7.029600e-04	5.000000e+00	2.975059e+00	1.475653e+00	
713	7.039600e-04	5.000000e+00	2.975196e+00	1.477151e+00	
714	7.049600e-04	5.000000e+00	2.975332e+00	1.478649e+00	
715	7.059600e-04	5.000000e+00	2.975468e+00	1.480145e+00	
716	7.069600e-04	5.000000e+00	2.975604e+00	1.481639e+00	
717	7.079600e-04	5.000000e+00	2.975739e+00	1.483133e+00	
718	7.089600e-04	5.000000e+00	2.975875e+00	1.484625e+00	
719	7.099600e-04	5.000000e+00	2.976010e+00	1.486115e+00	
720	7.109600e-04	5.000000e+00	2.976146e+00	1.487604e+00	
721	7.119600e-04	5.000000e+00	2.976281e+00	1.489092e+00	
722	7.129600e-04	5.000000e+00	2.976416e+00	1.490579e+00	
723	7.139600e-04	5.000000e+00	2.976551e+00	1.492064e+00	
724	7.149600e-04	5.000000e+00	2.976686e+00	1.493548e+00	
725	7.159600e-04	5.000000e+00	2.976821e+00	1.495030e+00	
726	7.169600e-04	5.000000e+00	2.976956e+00	1.496511e+00	
727	7.179600e-04	5.000000e+00	2.977090e+00	1.497991e+00	
728	7.189600e-04	5.000000e+00	2.977224e+00	1.499469e+00	
729	7.199600e-04	5.000000e+00	2.977359e+00	1.500947e+00	
730	7.209600e-04	5.000000e+00	2.977493e+00	1.502422e+00	
731	7.219600e-04	5.000000e+00	2.977627e+00	1.503897e+00	
732	7.229600e-04	5.000000e+00	2.977761e+00	1.505370e+00	
733	7.239600e-04	5.000000e+00	2.977895e+00	1.506841e+00	
734	7.249600e-04	5.000000e+00	2.978028e+00	1.508312e+00	
735	7.259600e-04	5.000000e+00	2.978162e+00	1.509781e+00	
736	7.269600e-04	5.000000e+00	2.978295e+00	1.511249e+00	
737	7.279600e-04	5.000000e+00	2.978429e+00	1.512715e+00	
738	7.289600e-04	5.000000e+00	2.978562e+00	1.514180e+00	
739	7.299600e-04	5.000000e+00	2.978695e+00	1.515644e+00	
740	7.309600e-04	5.000000e+00	2.978828e+00	1.517106e+00	
741	7.319600e-04	5.000000e+00	2.978961e+00	1.518567e+00	
742	7.329600e-04	5.000000e+00	2.979093e+00	1.520027e+00	
743	7.339600e-04	5.000000e+00	2.979226e+00	1.521485e+00	
744	7.349600e-04	5.000000e+00	2.979358e+00	1.522942e+00	
745	7.359600e-04	5.000000e+00	2.979491e+00	1.524398e+00	
746	7.369600e-04	5.000000e+00	2.979623e+00	1.525853e+00	
747	7.379600e-04	5.000000e+00	2.979755e+00	1.527306e+00	
748	7.389600e-04	5.000000e+00	2.979887e+00	1.528758e+00	
749	7.399600e-04	5.000000e+00	2.980019e+00	1.530208e+00	
750	7.409600e-04	5.000000e+00	2.980151e+00	1.531657e+00	

Index   time            v(vref)         v(rc_node)      v(cap_pos)      
--------------------------------------------------------------------------------
751	7.419600e-04	5.000000e+00	2.980282e+00	1.533105e+00	
752	7.429600e-04	5.000000e+00	2.980414e+00	1.534551e+00	
753	7.439600e-04	5.000000e+00	2.980545e+00	1.535997e+00	
754	7.449600e-04	5.000000e+00	2.980676e+00	1.537441e+00	
755	7.459600e-04	5.000000e+00	2.980808e+00	1.538883e+00	
756	7.469600e-04	5.000000e+00	2.980939e+00	1.540324e+00	
757	7.479600e-04	5.000000e+00	2.981069e+00	1.541764e+00	
758	7.489600e-04	5.000000e+00	2.981200e+00	1.543203e+00	
759	7.499600e-04	5.000000e+00	2.981331e+00	1.544640e+00	
760	7.509600e-04	5.000000e+00	2.981461e+00	1.546076e+00	
761	7.519600e-04	5.000000e+00	2.981592e+00	1.547511e+00	
762	7.529600e-04	5.000000e+00	2.981722e+00	1.548945e+00	
763	7.539600e-04	5.000000e+00	2.981852e+00	1.550377e+00	
764	7.549600e-04	5.000000e+00	2.981983e+00	1.551808e+00	
765	7.559600e-04	5.000000e+00	2.982112e+00	1.553237e+00	
766	7.569600e-04	5.000000e+00	2.982242e+00	1.554665e+00	
767	7.579600e-04	5.000000e+00	2.982372e+00	1.556092e+00	
768	7.589600e-04	5.000000e+00	2.982502e+00	1.557518e+00	
769	7.599600e-04	5.000000e+00	2.982631e+00	1.558942e+00	
770	7.609600e-04	5.000000e+00	2.982760e+00	1.560365e+00	
771	7.619600e-04	5.000000e+00	2.982890e+00	1.561787e+00	
772	7.629600e-04	5.000000e+00	2.983019e+00	1.563207e+00	
773	7.639600e-04	5.000000e+00	2.983148e+00	1.564627e+00	
774	7.649600e-04	5.000000e+00	2.983277e+00	1.566044e+00	
775	7.659600e-04	5.000000e+00	2.983406e+00	1.567461e+00	
776	7.669600e-04	5.000000e+00	2.983534e+00	1.568876e+00	
777	7.679600e-04	5.000000e+00	2.983663e+00	1.570290e+00	
778	7.689600e-04	5.000000e+00	2.983791e+00	1.571703e+00	
779	7.699600e-04	5.000000e+00	2.983920e+00	1.573115e+00	
780	7.709600e-04	5.000000e+00	2.984048e+00	1.574525e+00	
781	7.719600e-04	5.000000e+00	2.984176e+00	1.575934e+00	
782	7.729600e-04	5.000000e+00	2.984304e+00	1.577341e+00	
783	7.739600e-04	5.000000e+00	2.984432e+00	1.578748e+00	
784	7.749600e-04	5.000000e+00	2.984559e+00	1.580153e+00	
785	7.759600e-04	5.000000e+00	2.984687e+00	1.581556e+00	
786	7.769600e-04	5.000000e+00	2.984814e+00	1.582959e+00	
787	7.779600e-04	5.000000e+00	2.984942e+00	1.584360e+00	
788	7.789600e-04	5.000000e+00	2.985069e+00	1.585760e+00	
789	7.799600e-04	5.000000e+00	2.985196e+00	1.587159e+00	
790	7.809600e-04	5.000000e+00	2.985323e+00	1.588556e+00	
791	7.819600e-04	5.000000e+00	2.985450e+00	1.589952e+00	
792	7.829600e-04	5.000000e+00	2.985577e+00	1.591347e+00	
793	7.839600e-04	5.000000e+00	2.985704e+00	1.592741e+00	
794	7.849600e-04	5.000000e+00	2.985830e+00	1.594133e+00	
795	7.859600e-04	5.000000e+00	2.985957e+00	1.595524e+00	
796	7.869600e-04	5.000000e+00	2.986083e+00	1.596914e+00	
797	7.879600e-04	5.000000e+00	2.986209e+00	1.598302e+00	
798	7.889600e-04	5.000000e+00	2.986335e+00	1.599690e+00	
799	7.899600e-04	5.000000e+00	2.986461e+00	1.601076e+00	
800	7.909600e-04	5.000000e+00	2.986587e+00	1.602460e+00	
801	7.919600e-04	5.000000e+00	2.986713e+00	1.603844e+00	
802	7.929600e-04	5.000000e+00	2.986839e+00	1.605226e+00	
803	7.939600e-04	5.000000e+00	2.986964e+00	1.606607e+00	
804	7.949600e-04	5.000000e+00	2.987090e+00	1.607987e+00	
805	7.959600e-04	5.000000e+00	2.987215e+00	1.609365e+00	
806	7.969600e-04	5.000000e+00	2.987340e+00	1.610743e+00	
807	7.979600e-04	5.000000e+00	2.987465e+00	1.612119e+00	
808	7.989600e-04	5.000000e+00	2.987590e+00	1.613493e+00	

Index   time            v(vref)         v(rc_node)      v(cap_pos)      
--------------------------------------------------------------------------------
809	7.999600e-04	5.000000e+00	2.987715e+00	1.614867e+00	
810	8.009600e-04	5.000000e+00	2.987840e+00	1.616239e+00	
811	8.019600e-04	5.000000e+00	2.987965e+00	1.617610e+00	
812	8.029600e-04	5.000000e+00	2.988089e+00	1.618980e+00	
813	8.039600e-04	5.000000e+00	2.988213e+00	1.620348e+00	
814	8.049600e-04	5.000000e+00	2.988338e+00	1.621715e+00	
815	8.059600e-04	5.000000e+00	2.988462e+00	1.623081e+00	
816	8.069600e-04	5.000000e+00	2.988586e+00	1.624446e+00	
817	8.079600e-04	5.000000e+00	2.988710e+00	1.625810e+00	
818	8.089600e-04	5.000000e+00	2.988834e+00	1.627172e+00	
819	8.099600e-04	5.000000e+00	2.988958e+00	1.628533e+00	
820	8.109600e-04	5.000000e+00	2.989081e+00	1.629893e+00	
821	8.119600e-04	5.000000e+00	2.989205e+00	1.631251e+00	
822	8.129600e-04	5.000000e+00	2.989328e+00	1.632609e+00	
823	8.139600e-04	5.000000e+00	2.989451e+00	1.633965e+00	
824	8.149600e-04	5.000000e+00	2.989575e+00	1.635320e+00	
825	8.159600e-04	5.000000e+00	2.989698e+00	1.636673e+00	
826	8.169600e-04	5.000000e+00	2.989821e+00	1.638026e+00	
827	8.179600e-04	5.000000e+00	2.989943e+00	1.639377e+00	
828	8.189600e-04	5.000000e+00	2.990066e+00	1.640727e+00	
829	8.199600e-04	5.000000e+00	2.990189e+00	1.642076e+00	
830	8.209600e-04	5.000000e+00	2.990311e+00	1.643423e+00	
831	8.219600e-04	5.000000e+00	2.990434e+00	1.644769e+00	
832	8.229600e-04	5.000000e+00	2.990556e+00	1.646114e+00	
833	8.239600e-04	5.000000e+00	2.990678e+00	1.647458e+00	
834	8.249600e-04	5.000000e+00	2.990800e+00	1.648801e+00	
835	8.259600e-04	5.000000e+00	2.990922e+00	1.650142e+00	
836	8.269600e-04	5.000000e+00	2.991044e+00	1.651482e+00	
837	8.279600e-04	5.000000e+00	2.991166e+00	1.652821e+00	
838	8.289600e-04	5.000000e+00	2.991287e+00	1.654159e+00	
839	8.299600e-04	5.000000e+00	2.991409e+00	1.655496e+00	
840	8.309600e-04	5.000000e+00	2.991530e+00	1.656831e+00	
841	8.319600e-04	5.000000e+00	2.991651e+00	1.658165e+00	
842	8.329600e-04	5.000000e+00	2.991773e+00	1.659498e+00	
843	8.339600e-04	5.000000e+00	2.991894e+00	1.660830e+00	
844	8.349600e-04	5.000000e+00	2.992015e+00	1.662160e+00	
845	8.359600e-04	5.000000e+00	2.992135e+00	1.663489e+00	
846	8.369600e-04	5.000000e+00	2.992256e+00	1.664817e+00	
847	8.379600e-04	5.000000e+00	2.992377e+00	1.666144e+00	
848	8.389600e-04	5.000000e+00	2.992497e+00	1.667470e+00	
849	8.399600e-04	5.000000e+00	2.992618e+00	1.668794e+00	
850	8.409600e-04	5.000000e+00	2.992738e+00	1.670117e+00	
851	8.419600e-04	5.000000e+00	2.992858e+00	1.671440e+00	
852	8.429600e-04	5.000000e+00	2.992978e+00	1.672760e+00	
853	8.439600e-04	5.000000e+00	2.993098e+00	1.674080e+00	
854	8.449600e-04	5.000000e+00	2.993218e+00	1.675398e+00	
855	8.459600e-04	5.000000e+00	2.993338e+00	1.676716e+00	
856	8.469600e-04	5.000000e+00	2.993457e+00	1.678032e+00	
857	8.479600e-04	5.000000e+00	2.993577e+00	1.679346e+00	
858	8.489600e-04	5.000000e+00	2.993696e+00	1.680660e+00	
859	8.499600e-04	5.000000e+00	2.993816e+00	1.681973e+00	
860	8.509600e-04	5.000000e+00	2.993935e+00	1.683284e+00	
861	8.519600e-04	5.000000e+00	2.994054e+00	1.684594e+00	
862	8.529600e-04	5.000000e+00	2.994173e+00	1.685903e+00	
863	8.539600e-04	5.000000e+00	2.994292e+00	1.687210e+00	
864	8.549600e-04	5.000000e+00	2.994411e+00	1.688517e+00	
865	8.559600e-04	5.000000e+00	2.994529e+00	1.689822e+00	
866	8.569600e-04	5.000000e+00	2.994648e+00	1.691126e+00	

Index   time            v(vref)         v(rc_node)      v(cap_pos)      
--------------------------------------------------------------------------------
867	8.579600e-04	5.000000e+00	2.994766e+00	1.692429e+00	
868	8.589600e-04	5.000000e+00	2.994885e+00	1.693731e+00	
869	8.599600e-04	5.000000e+00	2.995003e+00	1.695032e+00	
870	8.609600e-04	5.000000e+00	2.995121e+00	1.696331e+00	
871	8.619600e-04	5.000000e+00	2.995239e+00	1.697629e+00	
872	8.629600e-04	5.000000e+00	2.995357e+00	1.698926e+00	
873	8.639600e-04	5.000000e+00	2.995475e+00	1.700222e+00	
874	8.649600e-04	5.000000e+00	2.995592e+00	1.701517e+00	
875	8.659600e-04	5.000000e+00	2.995710e+00	1.702810e+00	
876	8.669600e-04	5.000000e+00	2.995827e+00	1.704102e+00	
877	8.679600e-04	5.000000e+00	2.995945e+00	1.705394e+00	
878	8.689600e-04	5.000000e+00	2.996062e+00	1.706684e+00	
879	8.699600e-04	5.000000e+00	2.996179e+00	1.707972e+00	
880	8.709600e-04	5.000000e+00	2.996296e+00	1.709260e+00	
881	8.719600e-04	5.000000e+00	2.996413e+00	1.710546e+00	
882	8.729600e-04	5.000000e+00	2.996530e+00	1.711832e+00	
883	8.739600e-04	5.000000e+00	2.996647e+00	1.713116e+00	
884	8.749600e-04	5.000000e+00	2.996764e+00	1.714399e+00	
885	8.759600e-04	5.000000e+00	2.996880e+00	1.715681e+00	
886	8.769600e-04	5.000000e+00	2.996996e+00	1.716961e+00	
887	8.779600e-04	5.000000e+00	2.997113e+00	1.718241e+00	
888	8.789600e-04	5.000000e+00	2.997229e+00	1.719519e+00	
889	8.799600e-04	5.000000e+00	2.997345e+00	1.720796e+00	
890	8.809600e-04	5.000000e+00	2.997461e+00	1.722072e+00	
891	8.819600e-04	5.000000e+00	2.997577e+00	1.723347e+00	
892	8.829600e-04	5.000000e+00	2.997693e+00	1.724620e+00	
893	8.839600e-04	5.000000e+00	2.997808e+00	1.725893e+00	
894	8.849600e-04	5.000000e+00	2.997924e+00	1.727164e+00	
895	8.859600e-04	5.000000e+00	2.998039e+00	1.728434e+00	
896	8.869600e-04	5.000000e+00	2.998155e+00	1.729703e+00	
897	8.879600e-04	5.000000e+00	2.998270e+00	1.730971e+00	
898	8.889600e-04	5.000000e+00	2.998385e+00	1.732238e+00	
899	8.899600e-04	5.000000e+00	2.998500e+00	1.733504e+00	
900	8.909600e-04	5.000000e+00	2.998615e+00	1.734768e+00	
901	8.919600e-04	5.000000e+00	2.998730e+00	1.736031e+00	
902	8.929600e-04	5.000000e+00	2.998845e+00	1.737293e+00	
903	8.939600e-04	5.000000e+00	2.998959e+00	1.738554e+00	
904	8.949600e-04	5.000000e+00	2.999074e+00	1.739814e+00	
905	8.959600e-04	5.000000e+00	2.999188e+00	1.741073e+00	
906	8.969600e-04	5.000000e+00	2.999303e+00	1.742331e+00	
907	8.979600e-04	5.000000e+00	2.999417e+00	1.743587e+00	
908	8.989600e-04	5.000000e+00	2.999531e+00	1.744842e+00	
909	8.999600e-04	5.000000e+00	2.999645e+00	1.746096e+00	
910	9.009600e-04	5.000000e+00	2.999759e+00	1.747349e+00	
911	9.019600e-04	5.000000e+00	2.999873e+00	1.748601e+00	
912	9.029600e-04	5.000000e+00	2.999987e+00	1.749852e+00	
913	9.039600e-04	5.000000e+00	3.000100e+00	1.751101e+00	
914	9.049600e-04	5.000000e+00	3.000214e+00	1.752350e+00	
915	9.059600e-04	5.000000e+00	3.000327e+00	1.753597e+00	
916	9.069600e-04	5.000000e+00	3.000440e+00	1.754843e+00	
917	9.079600e-04	5.000000e+00	3.000553e+00	1.756088e+00	
918	9.089600e-04	5.000000e+00	3.000667e+00	1.757332e+00	
919	9.099600e-04	5.000000e+00	3.000780e+00	1.758575e+00	
920	9.109600e-04	5.000000e+00	3.000892e+00	1.759817e+00	
921	9.119600e-04	5.000000e+00	3.001005e+00	1.761057e+00	
922	9.129600e-04	5.000000e+00	3.001118e+00	1.762297e+00	
923	9.139600e-04	5.000000e+00	3.001230e+00	1.763535e+00	
924	9.149600e-04	5.000000e+00	3.001343e+00	1.764772e+00	

Index   time            v(vref)         v(rc_node)      v(cap_pos)      
--------------------------------------------------------------------------------
925	9.159600e-04	5.000000e+00	3.001455e+00	1.766008e+00	
926	9.169600e-04	5.000000e+00	3.001568e+00	1.767243e+00	
927	9.179600e-04	5.000000e+00	3.001680e+00	1.768477e+00	
928	9.189600e-04	5.000000e+00	3.001792e+00	1.769709e+00	
929	9.199600e-04	5.000000e+00	3.001904e+00	1.770941e+00	
930	9.209600e-04	5.000000e+00	3.002016e+00	1.772171e+00	
931	9.219600e-04	5.000000e+00	3.002127e+00	1.773400e+00	
932	9.229600e-04	5.000000e+00	3.002239e+00	1.774629e+00	
933	9.239600e-04	5.000000e+00	3.002351e+00	1.775856e+00	
934	9.249600e-04	5.000000e+00	3.002462e+00	1.777082e+00	
935	9.259600e-04	5.000000e+00	3.002573e+00	1.778306e+00	
936	9.269600e-04	5.000000e+00	3.002685e+00	1.779530e+00	
937	9.279600e-04	5.000000e+00	3.002796e+00	1.780753e+00	
938	9.289600e-04	5.000000e+00	3.002907e+00	1.781974e+00	
939	9.299600e-04	5.000000e+00	3.003018e+00	1.783195e+00	
940	9.309600e-04	5.000000e+00	3.003129e+00	1.784414e+00	
941	9.319600e-04	5.000000e+00	3.003239e+00	1.785632e+00	
942	9.329600e-04	5.000000e+00	3.003350e+00	1.786849e+00	
943	9.339600e-04	5.000000e+00	3.003460e+00	1.788065e+00	
944	9.349600e-04	5.000000e+00	3.003571e+00	1.789280e+00	
945	9.359600e-04	5.000000e+00	3.003681e+00	1.790494e+00	
946	9.369600e-04	5.000000e+00	3.003791e+00	1.791706e+00	
947	9.379600e-04	5.000000e+00	3.003902e+00	1.792918e+00	
948	9.389600e-04	5.000000e+00	3.004012e+00	1.794128e+00	
949	9.399600e-04	5.000000e+00	3.004122e+00	1.795338e+00	
950	9.409600e-04	5.000000e+00	3.004231e+00	1.796546e+00	
951	9.419600e-04	5.000000e+00	3.004341e+00	1.797753e+00	
952	9.429600e-04	5.000000e+00	3.004451e+00	1.798959e+00	
953	9.439600e-04	5.000000e+00	3.004560e+00	1.800164e+00	
954	9.449600e-04	5.000000e+00	3.004670e+00	1.801368e+00	
955	9.459600e-04	5.000000e+00	3.004779e+00	1.802570e+00	
956	9.469600e-04	5.000000e+00	3.004888e+00	1.803772e+00	
957	9.479600e-04	5.000000e+00	3.004998e+00	1.804973e+00	
958	9.489600e-04	5.000000e+00	3.005107e+00	1.806172e+00	
959	9.499600e-04	5.000000e+00	3.005216e+00	1.807371e+00	
960	9.509600e-04	5.000000e+00	3.005324e+00	1.808568e+00	
961	9.519600e-04	5.000000e+00	3.005433e+00	1.809764e+00	
962	9.529600e-04	5.000000e+00	3.005542e+00	1.810959e+00	
963	9.539600e-04	5.000000e+00	3.005650e+00	1.812153e+00	
964	9.549600e-04	5.000000e+00	3.005759e+00	1.813346e+00	
965	9.559600e-04	5.000000e+00	3.005867e+00	1.814538e+00	
966	9.569600e-04	5.000000e+00	3.005975e+00	1.815729e+00	
967	9.579600e-04	5.000000e+00	3.006084e+00	1.816919e+00	
968	9.589600e-04	5.000000e+00	3.006192e+00	1.818107e+00	
969	9.599600e-04	5.000000e+00	3.006300e+00	1.819295e+00	
970	9.609600e-04	5.000000e+00	3.006407e+00	1.820481e+00	
971	9.619600e-04	5.000000e+00	3.006515e+00	1.821667e+00	
972	9.629600e-04	5.000000e+00	3.006623e+00	1.822851e+00	
973	9.639600e-04	5.000000e+00	3.006730e+00	1.824034e+00	
974	9.649600e-04	5.000000e+00	3.006838e+00	1.825216e+00	
975	9.659600e-04	5.000000e+00	3.006945e+00	1.826397e+00	
976	9.669600e-04	5.000000e+00	3.007052e+00	1.827577e+00	
977	9.679600e-04	5.000000e+00	3.007160e+00	1.828756e+00	
978	9.689600e-04	5.000000e+00	3.007267e+00	1.829934e+00	
979	9.699600e-04	5.000000e+00	3.007374e+00	1.831111e+00	
980	9.709600e-04	5.000000e+00	3.007481e+00	1.832287e+00	
981	9.719600e-04	5.000000e+00	3.007587e+00	1.833461e+00	
982	9.729600e-04	5.000000e+00	3.007694e+00	1.834635e+00	

Index   time            v(vref)         v(rc_node)      v(cap_pos)      
--------------------------------------------------------------------------------
983	9.739600e-04	5.000000e+00	3.007801e+00	1.835808e+00	
984	9.749600e-04	5.000000e+00	3.007907e+00	1.836979e+00	
985	9.759600e-04	5.000000e+00	3.008014e+00	1.838149e+00	
986	9.769600e-04	5.000000e+00	3.008120e+00	1.839319e+00	
987	9.779600e-04	5.000000e+00	3.008226e+00	1.840487e+00	
988	9.789600e-04	5.000000e+00	3.008332e+00	1.841654e+00	
989	9.799600e-04	5.000000e+00	3.008438e+00	1.842820e+00	
990	9.809600e-04	5.000000e+00	3.008544e+00	1.843985e+00	
991	9.819600e-04	5.000000e+00	3.008650e+00	1.845149e+00	
992	9.829600e-04	5.000000e+00	3.008756e+00	1.846312e+00	
993	9.839600e-04	5.000000e+00	3.008861e+00	1.847474e+00	
994	9.849600e-04	5.000000e+00	3.008967e+00	1.848635e+00	
995	9.859600e-04	5.000000e+00	3.009072e+00	1.849795e+00	
996	9.869600e-04	5.000000e+00	3.009178e+00	1.850954e+00	
997	9.879600e-04	5.000000e+00	3.009283e+00	1.852111e+00	
998	9.889600e-04	5.000000e+00	3.009388e+00	1.853268e+00	
999	9.899600e-04	5.000000e+00	3.009493e+00	1.854424e+00	
1000	9.909600e-04	5.000000e+00	3.009598e+00	1.855578e+00	
1001	9.919600e-04	5.000000e+00	3.009703e+00	1.856732e+00	
1002	9.929600e-04	5.000000e+00	3.009808e+00	1.857884e+00	
1003	9.939600e-04	5.000000e+00	3.009912e+00	1.859036e+00	
1004	9.949600e-04	5.000000e+00	3.010017e+00	1.860186e+00	
1005	9.959600e-04	5.000000e+00	3.010121e+00	1.861335e+00	
1006	9.969600e-04	5.000000e+00	3.010226e+00	1.862484e+00	
1007	9.979600e-04	5.000000e+00	3.010330e+00	1.863631e+00	
1008	9.989600e-04	5.000000e+00	3.010434e+00	1.864777e+00	
1009	9.999600e-04	5.000000e+00	3.010538e+00	1.865922e+00	
1010	1.000960e-03	5.000000e+00	3.010642e+00	1.867066e+00	
1011	1.001960e-03	5.000000e+00	3.010746e+00	1.868209e+00	
1012	1.002960e-03	5.000000e+00	3.010850e+00	1.869351e+00	
1013	1.003960e-03	5.000000e+00	3.010954e+00	1.870492e+00	
1014	1.004960e-03	5.000000e+00	3.011057e+00	1.871632e+00	
1015	1.005960e-03	5.000000e+00	3.011161e+00	1.872771e+00	
1016	1.006960e-03	5.000000e+00	3.011264e+00	1.873909e+00	
1017	1.007960e-03	5.000000e+00	3.011368e+00	1.875046e+00	
1018	1.008960e-03	5.000000e+00	3.011471e+00	1.876182e+00	
1019	1.009960e-03	5.000000e+00	3.011574e+00	1.877316e+00	
1020	1.010960e-03	5.000000e+00	3.011677e+00	1.878450e+00	
1021	1.011960e-03	5.000000e+00	3.011780e+00	1.879583e+00	
1022	1.012960e-03	5.000000e+00	3.011883e+00	1.880714e+00	
1023	1.013960e-03	5.000000e+00	3.011986e+00	1.881845e+00	
1024	1.014960e-03	5.000000e+00	3.012089e+00	1.882975e+00	
1025	1.015960e-03	5.000000e+00	3.012191e+00	1.884103e+00	
1026	1.016960e-03	5.000000e+00	3.012294e+00	1.885231e+00	
1027	1.017960e-03	5.000000e+00	3.012396e+00	1.886357e+00	
1028	1.018960e-03	5.000000e+00	3.012498e+00	1.887483e+00	
1029	1.019960e-03	5.000000e+00	3.012601e+00	1.888608e+00	
1030	1.020960e-03	5.000000e+00	3.012703e+00	1.889731e+00	
1031	1.021960e-03	5.000000e+00	3.012805e+00	1.890853e+00	
1032	1.022960e-03	5.000000e+00	3.012907e+00	1.891975e+00	
1033	1.023960e-03	5.000000e+00	3.013009e+00	1.893095e+00	
1034	1.024960e-03	5.000000e+00	3.013110e+00	1.894215e+00	
1035	1.025960e-03	5.000000e+00	3.013212e+00	1.895333e+00	
1036	1.026960e-03	5.000000e+00	3.013314e+00	1.896450e+00	
1037	1.027960e-03	5.000000e+00	3.013415e+00	1.897567e+00	
1038	1.028960e-03	5.000000e+00	3.013517e+00	1.898682e+00	
1039	1.029960e-03	5.000000e+00	3.013618e+00	1.899797e+00	
1040	1.030960e-03	5.000000e+00	3.013719e+00	1.900910e+00	

Index   time            v(vref)         v(rc_node)      v(cap_pos)      
--------------------------------------------------------------------------------
1041	1.031960e-03	5.000000e+00	3.013820e+00	1.902022e+00	
1042	1.032960e-03	5.000000e+00	3.013921e+00	1.903133e+00	
1043	1.033960e-03	5.000000e+00	3.014022e+00	1.904244e+00	
1044	1.034960e-03	5.000000e+00	3.014123e+00	1.905353e+00	
1045	1.035960e-03	5.000000e+00	3.014224e+00	1.906461e+00	
1046	1.036960e-03	5.000000e+00	3.014324e+00	1.907569e+00	
1047	1.037960e-03	5.000000e+00	3.014425e+00	1.908675e+00	
1048	1.038960e-03	5.000000e+00	3.014525e+00	1.909780e+00	
1049	1.039960e-03	5.000000e+00	3.014626e+00	1.910884e+00	
1050	1.040960e-03	5.000000e+00	3.014726e+00	1.911987e+00	
1051	1.041960e-03	5.000000e+00	3.014826e+00	1.913090e+00	
1052	1.042960e-03	5.000000e+00	3.014926e+00	1.914191e+00	
1053	1.043960e-03	5.000000e+00	3.015026e+00	1.915291e+00	
1054	1.044960e-03	5.000000e+00	3.015126e+00	1.916390e+00	
1055	1.045960e-03	5.000000e+00	3.015226e+00	1.917489e+00	
1056	1.046960e-03	5.000000e+00	3.015326e+00	1.918586e+00	
1057	1.047960e-03	5.000000e+00	3.015426e+00	1.919682e+00	
1058	1.048960e-03	5.000000e+00	3.015525e+00	1.920777e+00	
1059	1.049960e-03	5.000000e+00	3.015625e+00	1.921872e+00	
1060	1.050960e-03	5.000000e+00	3.015724e+00	1.922965e+00	
1061	1.051960e-03	5.000000e+00	3.015823e+00	1.924057e+00	
1062	1.052960e-03	5.000000e+00	3.015923e+00	1.925148e+00	
1063	1.053960e-03	5.000000e+00	3.016022e+00	1.926239e+00	
1064	1.054960e-03	5.000000e+00	3.016121e+00	1.927328e+00	
1065	1.055960e-03	5.000000e+00	3.016220e+00	1.928416e+00	
1066	1.056960e-03	5.000000e+00	3.016319e+00	1.929504e+00	
1067	1.057960e-03	5.000000e+00	3.016417e+00	1.930590e+00	
1068	1.058960e-03	5.000000e+00	3.016516e+00	1.931675e+00	
1069	1.059960e-03	5.000000e+00	3.016615e+00	1.932760e+00	
1070	1.060960e-03	5.000000e+00	3.016713e+00	1.933843e+00	
1071	1.061960e-03	5.000000e+00	3.016811e+00	1.934925e+00	
1072	1.062960e-03	5.000000e+00	3.016910e+00	1.936007e+00	
1073	1.063960e-03	5.000000e+00	3.017008e+00	1.937087e+00	
1074	1.064960e-03	5.000000e+00	3.017106e+00	1.938167e+00	
1075	1.065960e-03	5.000000e+00	3.017204e+00	1.939245e+00	
1076	1.066960e-03	5.000000e+00	3.017302e+00	1.940323e+00	
1077	1.067960e-03	5.000000e+00	3.017400e+00	1.941399e+00	
1078	1.068960e-03	5.000000e+00	3.017498e+00	1.942475e+00	
1079	1.069960e-03	5.000000e+00	3.017595e+00	1.943549e+00	
1080	1.070960e-03	5.000000e+00	3.017693e+00	1.944623e+00	
1081	1.071960e-03	5.000000e+00	3.017790e+00	1.945695e+00	
1082	1.072960e-03	5.000000e+00	3.017888e+00	1.946767e+00	
1083	1.073960e-03	5.000000e+00	3.017985e+00	1.947837e+00	
1084	1.074960e-03	5.000000e+00	3.018082e+00	1.948907e+00	
1085	1.075960e-03	5.000000e+00	3.018180e+00	1.949976e+00	
1086	1.076960e-03	5.000000e+00	3.018277e+00	1.951043e+00	
1087	1.077960e-03	5.000000e+00	3.018374e+00	1.952110e+00	
1088	1.078960e-03	5.000000e+00	3.018471e+00	1.953176e+00	
1089	1.079960e-03	5.000000e+00	3.018567e+00	1.954241e+00	
1090	1.080960e-03	5.000000e+00	3.018664e+00	1.955305e+00	
1091	1.081960e-03	5.000000e+00	3.018761e+00	1.956368e+00	
1092	1.082960e-03	5.000000e+00	3.018857e+00	1.957429e+00	
1093	1.083960e-03	5.000000e+00	3.018954e+00	1.958490e+00	
1094	1.084960e-03	5.000000e+00	3.019050e+00	1.959550e+00	
1095	1.085960e-03	5.000000e+00	3.019146e+00	1.960609e+00	
1096	1.086960e-03	5.000000e+00	3.019242e+00	1.961667e+00	
1097	1.087960e-03	5.000000e+00	3.019339e+00	1.962725e+00	
1098	1.088960e-03	5.000000e+00	3.019435e+00	1.963781e+00	

Index   time            v(vref)         v(rc_node)      v(cap_pos)      
--------------------------------------------------------------------------------
1099	1.089960e-03	5.000000e+00	3.019531e+00	1.964836e+00	
1100	1.090960e-03	5.000000e+00	3.019626e+00	1.965890e+00	
1101	1.091960e-03	5.000000e+00	3.019722e+00	1.966943e+00	
1102	1.092960e-03	5.000000e+00	3.019818e+00	1.967996e+00	
1103	1.093960e-03	5.000000e+00	3.019913e+00	1.969047e+00	
1104	1.094960e-03	5.000000e+00	3.020009e+00	1.970097e+00	
1105	1.095960e-03	5.000000e+00	3.020104e+00	1.971147e+00	
1106	1.096960e-03	5.000000e+00	3.020200e+00	1.972195e+00	
1107	1.097960e-03	5.000000e+00	3.020295e+00	1.973243e+00	
1108	1.098960e-03	5.000000e+00	3.020390e+00	1.974289e+00	
1109	1.099960e-03	5.000000e+00	3.020485e+00	1.975335e+00	
1110	1.100960e-03	5.000000e+00	3.020580e+00	1.976380e+00	
1111	1.101960e-03	5.000000e+00	3.020675e+00	1.977423e+00	
1112	1.102960e-03	5.000000e+00	3.020770e+00	1.978466e+00	
1113	1.103960e-03	5.000000e+00	3.020864e+00	1.979508e+00	
1114	1.104960e-03	5.000000e+00	3.020959e+00	1.980549e+00	
1115	1.105960e-03	5.000000e+00	3.021054e+00	1.981589e+00	
1116	1.106960e-03	5.000000e+00	3.021148e+00	1.982628e+00	
1117	1.107960e-03	5.000000e+00	3.021242e+00	1.983666e+00	
1118	1.108960e-03	5.000000e+00	3.021337e+00	1.984703e+00	
1119	1.109960e-03	5.000000e+00	3.021431e+00	1.985739e+00	
1120	1.110960e-03	5.000000e+00	3.021525e+00	1.986774e+00	
1121	1.111960e-03	5.000000e+00	3.021619e+00	1.987809e+00	
1122	1.112960e-03	5.000000e+00	3.021713e+00	1.988842e+00	
1123	1.113960e-03	5.000000e+00	3.021807e+00	1.989874e+00	
1124	1.114960e-03	5.000000e+00	3.021901e+00	1.990906e+00	
1125	1.115960e-03	5.000000e+00	3.021994e+00	1.991936e+00	
1126	1.116960e-03	5.000000e+00	3.022088e+00	1.992966e+00	
1127	1.117960e-03	5.000000e+00	3.022181e+00	1.993995e+00	
1128	1.118960e-03	5.000000e+00	3.022275e+00	1.995022e+00	
1129	1.119960e-03	5.000000e+00	3.022368e+00	1.996049e+00	
1130	1.120960e-03	5.000000e+00	3.022461e+00	1.997075e+00	
1131	1.121960e-03	5.000000e+00	3.022555e+00	1.998100e+00	
1132	1.122960e-03	5.000000e+00	3.022648e+00	1.999124e+00	
1133	1.123960e-03	5.000000e+00	3.022741e+00	2.000147e+00	
1134	1.124960e-03	5.000000e+00	3.022834e+00	2.001169e+00	
1135	1.125960e-03	5.000000e+00	3.022926e+00	2.002190e+00	
1136	1.126960e-03	5.000000e+00	3.023019e+00	2.003211e+00	
1137	1.127960e-03	5.000000e+00	3.023112e+00	2.004230e+00	
1138	1.128960e-03	5.000000e+00	3.023204e+00	2.005248e+00	
1139	1.129960e-03	5.000000e+00	3.023297e+00	2.006266e+00	
1140	1.130960e-03	5.000000e+00	3.023389e+00	2.007282e+00	
1141	1.131960e-03	5.000000e+00	3.023482e+00	2.008298e+00	
1142	1.132960e-03	5.000000e+00	3.023574e+00	2.009313e+00	
1143	1.133960e-03	5.000000e+00	3.023666e+00	2.010327e+00	
1144	1.134960e-03	5.000000e+00	3.023758e+00	2.011339e+00	
1145	1.135960e-03	5.000000e+00	3.023850e+00	2.012351e+00	
1146	1.136960e-03	5.000000e+00	3.023942e+00	2.013362e+00	
1147	1.137960e-03	5.000000e+00	3.024034e+00	2.014373e+00	
1148	1.138960e-03	5.000000e+00	3.024126e+00	2.015382e+00	
1149	1.139960e-03	5.000000e+00	3.024217e+00	2.016390e+00	
1150	1.140960e-03	5.000000e+00	3.024309e+00	2.017397e+00	
1151	1.141960e-03	5.000000e+00	3.024400e+00	2.018404e+00	
1152	1.142960e-03	5.000000e+00	3.024492e+00	2.019409e+00	
1153	1.143960e-03	5.000000e+00	3.024583e+00	2.020414e+00	
1154	1.144960e-03	5.000000e+00	3.024674e+00	2.021418e+00	
1155	1.145960e-03	5.000000e+00	3.024766e+00	2.022421e+00	
1156	1.146960e-03	5.000000e+00	3.024857e+00	2.023422e+00	

Index   time            v(vref)         v(rc_node)      v(cap_pos)      
--------------------------------------------------------------------------------
1157	1.147960e-03	5.000000e+00	3.024948e+00	2.024423e+00	
1158	1.148960e-03	5.000000e+00	3.025038e+00	2.025423e+00	
1159	1.149960e-03	5.000000e+00	3.025129e+00	2.026423e+00	
1160	1.150960e-03	5.000000e+00	3.025220e+00	2.027421e+00	
1161	1.151960e-03	5.000000e+00	3.025311e+00	2.028418e+00	
1162	1.152960e-03	5.000000e+00	3.025401e+00	2.029415e+00	
1163	1.153960e-03	5.000000e+00	3.025492e+00	2.030410e+00	
1164	1.154960e-03	5.000000e+00	3.025582e+00	2.031405e+00	
1165	1.155960e-03	5.000000e+00	3.025673e+00	2.032399e+00	
1166	1.156960e-03	5.000000e+00	3.025763e+00	2.033391e+00	
1167	1.157960e-03	5.000000e+00	3.025853e+00	2.034383e+00	
1168	1.158960e-03	5.000000e+00	3.025943e+00	2.035374e+00	
1169	1.159960e-03	5.000000e+00	3.026033e+00	2.036364e+00	
1170	1.160960e-03	5.000000e+00	3.026123e+00	2.037354e+00	
1171	1.161960e-03	5.000000e+00	3.026213e+00	2.038342e+00	
1172	1.162960e-03	5.000000e+00	3.026303e+00	2.039329e+00	
1173	1.163960e-03	5.000000e+00	3.026392e+00	2.040316e+00	
1174	1.164960e-03	5.000000e+00	3.026482e+00	2.041302e+00	
1175	1.165960e-03	5.000000e+00	3.026571e+00	2.042286e+00	
1176	1.166960e-03	5.000000e+00	3.026661e+00	2.043270e+00	
1177	1.167960e-03	5.000000e+00	3.026750e+00	2.044253e+00	
1178	1.168960e-03	5.000000e+00	3.026840e+00	2.045235e+00	
1179	1.169960e-03	5.000000e+00	3.026929e+00	2.046216e+00	
1180	1.170960e-03	5.000000e+00	3.027018e+00	2.047197e+00	
1181	1.171960e-03	5.000000e+00	3.027107e+00	2.048176e+00	
1182	1.172960e-03	5.000000e+00	3.027196e+00	2.049154e+00	
1183	1.173960e-03	5.000000e+00	3.027285e+00	2.050132e+00	
1184	1.174960e-03	5.000000e+00	3.027374e+00	2.051109e+00	
1185	1.175960e-03	5.000000e+00	3.027462e+00	2.052085e+00	
1186	1.176960e-03	5.000000e+00	3.027551e+00	2.053059e+00	
1187	1.177960e-03	5.000000e+00	3.027639e+00	2.054034e+00	
1188	1.178960e-03	5.000000e+00	3.027728e+00	2.055007e+00	
1189	1.179960e-03	5.000000e+00	3.027816e+00	2.055979e+00	
1190	1.180960e-03	5.000000e+00	3.027905e+00	2.056950e+00	
1191	1.181960e-03	5.000000e+00	3.027993e+00	2.057921e+00	
1192	1.182960e-03	5.000000e+00	3.028081e+00	2.058891e+00	
1193	1.183960e-03	5.000000e+00	3.028169e+00	2.059859e+00	
1194	1.184960e-03	5.000000e+00	3.028257e+00	2.060827e+00	
1195	1.185960e-03	5.000000e+00	3.028345e+00	2.061794e+00	
1196	1.186960e-03	5.000000e+00	3.028433e+00	2.062760e+00	
1197	1.187960e-03	5.000000e+00	3.028520e+00	2.063725e+00	
1198	1.188960e-03	5.000000e+00	3.028608e+00	2.064690e+00	
1199	1.189960e-03	5.000000e+00	3.028696e+00	2.065653e+00	
1200	1.190960e-03	5.000000e+00	3.028783e+00	2.066616e+00	
1201	1.191960e-03	5.000000e+00	3.028871e+00	2.067578e+00	
1202	1.192960e-03	5.000000e+00	3.028958e+00	2.068538e+00	
1203	1.193960e-03	5.000000e+00	3.029045e+00	2.069498e+00	
1204	1.194960e-03	5.000000e+00	3.029133e+00	2.070458e+00	
1205	1.195960e-03	5.000000e+00	3.029220e+00	2.071416e+00	
1206	1.196960e-03	5.000000e+00	3.029307e+00	2.072373e+00	
1207	1.197960e-03	5.000000e+00	3.029394e+00	2.073330e+00	
1208	1.198960e-03	5.000000e+00	3.029480e+00	2.074285e+00	
1209	1.199960e-03	5.000000e+00	3.029567e+00	2.075240e+00	
1210	1.200960e-03	5.000000e+00	3.029654e+00	2.076194e+00	
1211	1.201960e-03	5.000000e+00	3.029741e+00	2.077147e+00	
1212	1.202960e-03	5.000000e+00	3.029827e+00	2.078099e+00	
1213	1.203960e-03	5.000000e+00	3.029914e+00	2.079050e+00	
1214	1.204960e-03	5.000000e+00	3.030000e+00	2.080001e+00	

Index   time            v(vref)         v(rc_node)      v(cap_pos)      
--------------------------------------------------------------------------------
1215	1.205960e-03	5.000000e+00	3.030086e+00	2.080950e+00	
1216	1.206960e-03	5.000000e+00	3.030173e+00	2.081899e+00	
1217	1.207960e-03	5.000000e+00	3.030259e+00	2.082847e+00	
1218	1.208960e-03	5.000000e+00	3.030345e+00	2.083794e+00	
1219	1.209960e-03	5.000000e+00	3.030431e+00	2.084740e+00	
1220	1.210960e-03	5.000000e+00	3.030517e+00	2.085685e+00	
1221	1.211960e-03	5.000000e+00	3.030603e+00	2.086630e+00	
1222	1.212960e-03	5.000000e+00	3.030688e+00	2.087573e+00	
1223	1.213960e-03	5.000000e+00	3.030774e+00	2.088516e+00	
1224	1.214960e-03	5.000000e+00	3.030860e+00	2.089458e+00	
1225	1.215960e-03	5.000000e+00	3.030945e+00	2.090399e+00	
1226	1.216960e-03	5.000000e+00	3.031031e+00	2.091339e+00	
1227	1.217960e-03	5.000000e+00	3.031116e+00	2.092278e+00	
1228	1.218960e-03	5.000000e+00	3.031202e+00	2.093217e+00	
1229	1.219960e-03	5.000000e+00	3.031287e+00	2.094154e+00	
1230	1.220960e-03	5.000000e+00	3.031372e+00	2.095091e+00	
1231	1.221960e-03	5.000000e+00	3.031457e+00	2.096027e+00	
1232	1.222960e-03	5.000000e+00	3.031542e+00	2.096962e+00	
1233	1.223960e-03	5.000000e+00	3.031627e+00	2.097896e+00	
1234	1.224960e-03	5.000000e+00	3.031712e+00	2.098829e+00	
1235	1.225960e-03	5.000000e+00	3.031797e+00	2.099762e+00	
1236	1.226960e-03	5.000000e+00	3.031881e+00	2.100693e+00	
1237	1.227960e-03	5.000000e+00	3.031966e+00	2.101624e+00	
1238	1.228960e-03	5.000000e+00	3.032050e+00	2.102554e+00	
1239	1.229960e-03	5.000000e+00	3.032135e+00	2.103483e+00	
1240	1.230960e-03	5.000000e+00	3.032219e+00	2.104411e+00	
1241	1.231960e-03	5.000000e+00	3.032304e+00	2.105339e+00	
1242	1.232960e-03	5.000000e+00	3.032388e+00	2.106265e+00	
1243	1.233960e-03	5.000000e+00	3.032472e+00	2.107191e+00	
1244	1.234960e-03	5.000000e+00	3.032556e+00	2.108116e+00	
1245	1.235960e-03	5.000000e+00	3.032640e+00	2.109040e+00	
1246	1.236960e-03	5.000000e+00	3.032724e+00	2.109963e+00	
1247	1.237960e-03	5.000000e+00	3.032808e+00	2.110885e+00	
1248	1.238960e-03	5.000000e+00	3.032892e+00	2.111807e+00	
1249	1.239960e-03	5.000000e+00	3.032975e+00	2.112727e+00	
1250	1.240960e-03	5.000000e+00	3.033059e+00	2.113647e+00	
1251	1.241960e-03	5.000000e+00	3.033142e+00	2.114566e+00	
1252	1.242960e-03	5.000000e+00	3.033226e+00	2.115484e+00	
1253	1.243960e-03	5.000000e+00	3.033309e+00	2.116402e+00	
1254	1.244960e-03	5.000000e+00	3.033393e+00	2.117318e+00	
1255	1.245960e-03	5.000000e+00	3.033476e+00	2.118234e+00	
1256	1.246960e-03	5.000000e+00	3.033559e+00	2.119149e+00	
1257	1.247960e-03	5.000000e+00	3.033642e+00	2.120063e+00	
1258	1.248960e-03	5.000000e+00	3.033725e+00	2.120976e+00	
1259	1.249960e-03	5.000000e+00	3.033808e+00	2.121888e+00	
1260	1.250960e-03	5.000000e+00	3.033891e+00	2.122800e+00	
1261	1.251960e-03	5.000000e+00	3.033974e+00	2.123710e+00	
1262	1.252960e-03	5.000000e+00	3.034056e+00	2.124620e+00	
1263	1.253960e-03	5.000000e+00	3.034139e+00	2.125529e+00	
1264	1.254960e-03	5.000000e+00	3.034222e+00	2.126437e+00	
1265	1.255960e-03	5.000000e+00	3.034304e+00	2.127345e+00	
1266	1.256960e-03	5.000000e+00	3.034386e+00	2.128251e+00	
1267	1.257960e-03	5.000000e+00	3.034469e+00	2.129157e+00	
1268	1.258960e-03	5.000000e+00	3.034551e+00	2.130062e+00	
1269	1.259960e-03	5.000000e+00	3.034633e+00	2.130966e+00	
1270	1.260960e-03	5.000000e+00	3.034715e+00	2.131869e+00	
1271	1.261960e-03	5.000000e+00	3.034797e+00	2.132772e+00	
1272	1.262960e-03	5.000000e+00	3.034879e+00	2.133673e+00	

Index   time            v(vref)         v(rc_node)      v(cap_pos)      
--------------------------------------------------------------------------------
1273	1.263960e-03	5.000000e+00	3.034961e+00	2.134574e+00	
1274	1.264960e-03	5.000000e+00	3.035043e+00	2.135474e+00	
1275	1.265960e-03	5.000000e+00	3.035125e+00	2.136373e+00	
1276	1.266960e-03	5.000000e+00	3.035207e+00	2.137272e+00	
1277	1.267960e-03	5.000000e+00	3.035288e+00	2.138169e+00	
1278	1.268960e-03	5.000000e+00	3.035370e+00	2.139066e+00	
1279	1.269960e-03	5.000000e+00	3.035451e+00	2.139962e+00	
1280	1.270960e-03	5.000000e+00	3.035532e+00	2.140857e+00	
1281	1.271960e-03	5.000000e+00	3.035614e+00	2.141751e+00	
1282	1.272960e-03	5.000000e+00	3.035695e+00	2.142645e+00	
1283	1.273960e-03	5.000000e+00	3.035776e+00	2.143537e+00	
1284	1.274960e-03	5.000000e+00	3.035857e+00	2.144429e+00	
1285	1.275960e-03	5.000000e+00	3.035938e+00	2.145320e+00	
1286	1.276960e-03	5.000000e+00	3.036019e+00	2.146210e+00	
1287	1.277960e-03	5.000000e+00	3.036100e+00	2.147100e+00	
1288	1.278960e-03	5.000000e+00	3.036181e+00	2.147988e+00	
1289	1.279960e-03	5.000000e+00	3.036261e+00	2.148876e+00	
1290	1.280960e-03	5.000000e+00	3.036342e+00	2.149763e+00	
1291	1.281960e-03	5.000000e+00	3.036423e+00	2.150649e+00	
1292	1.282960e-03	5.000000e+00	3.036503e+00	2.151535e+00	
1293	1.283960e-03	5.000000e+00	3.036584e+00	2.152419e+00	
1294	1.284960e-03	5.000000e+00	3.036664e+00	2.153303e+00	
1295	1.285960e-03	5.000000e+00	3.036744e+00	2.154186e+00	
1296	1.286960e-03	5.000000e+00	3.036824e+00	2.155068e+00	
1297	1.287960e-03	5.000000e+00	3.036904e+00	2.155949e+00	
1298	1.288960e-03	5.000000e+00	3.036985e+00	2.156830e+00	
1299	1.289960e-03	5.000000e+00	3.037065e+00	2.157710e+00	
1300	1.290960e-03	5.000000e+00	3.037144e+00	2.158589e+00	
1301	1.291960e-03	5.000000e+00	3.037224e+00	2.159467e+00	
1302	1.292960e-03	5.000000e+00	3.037304e+00	2.160344e+00	
1303	1.293960e-03	5.000000e+00	3.037384e+00	2.161221e+00	
1304	1.294960e-03	5.000000e+00	3.037463e+00	2.162097e+00	
1305	1.295960e-03	5.000000e+00	3.037543e+00	2.162972e+00	
1306	1.296960e-03	5.000000e+00	3.037622e+00	2.163846e+00	
1307	1.297960e-03	5.000000e+00	3.037702e+00	2.164719e+00	
1308	1.298960e-03	5.000000e+00	3.037781e+00	2.165592e+00	
1309	1.299960e-03	5.000000e+00	3.037860e+00	2.166463e+00	
1310	1.300960e-03	5.000000e+00	3.037939e+00	2.167334e+00	
1311	1.301960e-03	5.000000e+00	3.038019e+00	2.168205e+00	
1312	1.302960e-03	5.000000e+00	3.038098e+00	2.169074e+00	
1313	1.303960e-03	5.000000e+00	3.038177e+00	2.169943e+00	
1314	1.304960e-03	5.000000e+00	3.038256e+00	2.170811e+00	
1315	1.305960e-03	5.000000e+00	3.038334e+00	2.171678e+00	
1316	1.306960e-03	5.000000e+00	3.038413e+00	2.172544e+00	
1317	1.307960e-03	5.000000e+00	3.038492e+00	2.173409e+00	
1318	1.308960e-03	5.000000e+00	3.038570e+00	2.174274e+00	
1319	1.309960e-03	5.000000e+00	3.038649e+00	2.175138e+00	
1320	1.310960e-03	5.000000e+00	3.038727e+00	2.176001e+00	
1321	1.311960e-03	5.000000e+00	3.038806e+00	2.176863e+00	
1322	1.312960e-03	5.000000e+00	3.038884e+00	2.177725e+00	
1323	1.313960e-03	5.000000e+00	3.038962e+00	2.178586e+00	
1324	1.314960e-03	5.000000e+00	3.039041e+00	2.179446e+00	
1325	1.315960e-03	5.000000e+00	3.039119e+00	2.180305e+00	
1326	1.316960e-03	5.000000e+00	3.039197e+00	2.181163e+00	
1327	1.317960e-03	5.000000e+00	3.039275e+00	2.182021e+00	
1328	1.318960e-03	5.000000e+00	3.039353e+00	2.182878e+00	
[...]
4433	4.423960e-03	2.500000e+00	
4434	4.424960e-03	2.500000e+00	
4435	4.425960e-03	2.500000e+00	
4436	4.426960e-03	2.500000e+00	
4437	4.427960e-03	2.500000e+00	
4438	4.428960e-03	2.500000e+00	
4439	4.429960e-03	2.500000e+00	
4440	4.430960e-03	2.500000e+00	
4441	4.431960e-03	2.500000e+00	
4442	4.432960e-03	2.500000e+00	
4443	4.433960e-03	2.500000e+00	
4444	4.434960e-03	2.500000e+00	
4445	4.435960e-03	2.500000e+00	
4446	4.436960e-03	2.500000e+00	
4447	4.437960e-03	2.500000e+00	
4448	4.438960e-03	2.500000e+00	
4449	4.439960e-03	2.500000e+00	
4450	4.440960e-03	2.500000e+00	
4451	4.441960e-03	2.500000e+00	
4452	4.442960e-03	2.500000e+00	
4453	4.443960e-03	2.500000e+00	
4454	4.444960e-03	2.500000e+00	
4455	4.445960e-03	2.500000e+00	
4456	4.446960e-03	2.500000e+00	
4457	4.447960e-03	2.500000e+00	
4458	4.448960e-03	2.500000e+00	
4459	4.449960e-03	2.500000e+00	
4460	4.450960e-03	2.500000e+00	
4461	4.451960e-03	2.500000e+00	
4462	4.452960e-03	2.500000e+00	

Index   time            v(vref2)        
--------------------------------------------------------------------------------
4463	4.453960e-03	2.500000e+00	
4464	4.454960e-03	2.500000e+00	
4465	4.455960e-03	2.500000e+00	
4466	4.456960e-03	2.500000e+00	
4467	4.457960e-03	2.500000e+00	
4468	4.458960e-03	2.500000e+00	
4469	4.459960e-03	2.500000e+00	
4470	4.460960e-03	2.500000e+00	
4471	4.461960e-03	2.500000e+00	
4472	4.462960e-03	2.500000e+00	
4473	4.463960e-03	2.500000e+00	
4474	4.464960e-03	2.500000e+00	
4475	4.465960e-03	2.500000e+00	
4476	4.466960e-03	2.500000e+00	
4477	4.467960e-03	2.500000e+00	
4478	4.468960e-03	2.500000e+00	
4479	4.469960e-03	2.500000e+00	
4480	4.470960e-03	2.500000e+00	
4481	4.471960e-03	2.500000e+00	
4482	4.472960e-03	2.500000e+00	
4483	4.473960e-03	2.500000e+00	
4484	4.474960e-03	2.500000e+00	
4485	4.475960e-03	2.500000e+00	
4486	4.476960e-03	2.500000e+00	
4487	4.477960e-03	2.500000e+00	
4488	4.478960e-03	2.500000e+00	
4489	4.479960e-03	2.500000e+00	
4490	4.480960e-03	2.500000e+00	
4491	4.481960e-03	2.500000e+00	
4492	4.482960e-03	2.500000e+00	
4493	4.483960e-03	2.500000e+00	
4494	4.484960e-03	2.500000e+00	
4495	4.485960e-03	2.500000e+00	
4496	4.486960e-03	2.500000e+00	
4497	4.487960e-03	2.500000e+00	
4498	4.488960e-03	2.500000e+00	
4499	4.489960e-03	2.500000e+00	
4500	4.490960e-03	2.500000e+00	
4501	4.491960e-03	2.500000e+00	
4502	4.492960e-03	2.500000e+00	
4503	4.493960e-03	2.500000e+00	
4504	4.494960e-03	2.500000e+00	
4505	4.495960e-03	2.500000e+00	
4506	4.496960e-03	2.500000e+00	
4507	4.497960e-03	2.500000e+00	
4508	4.498960e-03	2.500000e+00	
4509	4.499960e-03	2.500000e+00	
4510	4.500960e-03	2.500000e+00	
4511	4.501960e-03	2.500000e+00	
4512	4.502960e-03	2.500000e+00	
4513	4.503960e-03	2.500000e+00	
4514	4.504960e-03	2.500000e+00	
4515	4.505960e-03	2.500000e+00	
4516	4.506960e-03	2.500000e+00	
4517	4.507960e-03	2.500000e+00	
4518	4.508960e-03	2.500000e+00	
4519	4.509960e-03	2.500000e+00	
4520	4.510960e-03	2.500000e+00	

Index   time            v(vref2)        
--------------------------------------------------------------------------------
4521	4.511960e-03	2.500000e+00	
4522	4.512960e-03	2.500000e+00	
4523	4.513960e-03	2.500000e+00	
4524	4.514960e-03	2.500000e+00	
4525	4.515960e-03	2.500000e+00	
4526	4.516960e-03	2.500000e+00	
4527	4.517960e-03	2.500000e+00	
4528	4.518960e-03	2.500000e+00	
4529	4.519960e-03	2.500000e+00	
4530	4.520960e-03	2.500000e+00	
4531	4.521960e-03	2.500000e+00	
4532	4.522960e-03	2.500000e+00	
4533	4.523960e-03	2.500000e+00	
4534	4.524960e-03	2.500000e+00	
4535	4.525960e-03	2.500000e+00	
4536	4.526960e-03	2.500000e+00	
4537	4.527960e-03	2.500000e+00	
4538	4.528960e-03	2.500000e+00	
4539	4.529960e-03	2.500000e+00	
4540	4.530960e-03	2.500000e+00	
4541	4.531960e-03	2.500000e+00	
4542	4.532960e-03	2.500000e+00	
4543	4.533960e-03	2.500000e+00	
4544	4.534960e-03	2.500000e+00	
4545	4.535960e-03	2.500000e+00	
4546	4.536960e-03	2.500000e+00	
4547	4.537960e-03	2.500000e+00	
4548	4.538960e-03	2.500000e+00	
4549	4.539960e-03	2.500000e+00	
4550	4.540960e-03	2.500000e+00	
4551	4.541960e-03	2.500000e+00	
4552	4.542960e-03	2.500000e+00	
4553	4.543960e-03	2.500000e+00	
4554	4.544960e-03	2.500000e+00	
4555	4.545960e-03	2.500000e+00	
4556	4.546960e-03	2.500000e+00	
4557	4.547960e-03	2.500000e+00	
4558	4.548960e-03	2.500000e+00	
4559	4.549960e-03	2.500000e+00	
4560	4.550960e-03	2.500000e+00	
4561	4.551960e-03	2.500000e+00	
4562	4.552960e-03	2.500000e+00	
4563	4.553960e-03	2.500000e+00	
4564	4.554960e-03	2.500000e+00	
4565	4.555960e-03	2.500000e+00	
4566	4.556960e-03	2.500000e+00	
4567	4.557960e-03	2.500000e+00	
4568	4.558960e-03	2.500000e+00	
4569	4.559960e-03	2.500000e+00	
4570	4.560960e-03	2.500000e+00	
4571	4.561960e-03	2.500000e+00	
4572	4.562960e-03	2.500000e+00	
4573	4.563960e-03	2.500000e+00	
4574	4.564960e-03	2.500000e+00	
4575	4.565960e-03	2.500000e+00	
4576	4.566960e-03	2.500000e+00	
4577	4.567960e-03	2.500000e+00	
4578	4.568960e-03	2.500000e+00	

Index   time            v(vref2)        
--------------------------------------------------------------------------------
4579	4.569960e-03	2.500000e+00	
4580	4.570960e-03	2.500000e+00	
4581	4.571960e-03	2.500000e+00	
4582	4.572960e-03	2.500000e+00	
4583	4.573960e-03	2.500000e+00	
4584	4.574960e-03	2.500000e+00	
4585	4.575960e-03	2.500000e+00	
4586	4.576960e-03	2.500000e+00	
4587	4.577960e-03	2.500000e+00	
4588	4.578960e-03	2.500000e+00	
4589	4.579960e-03	2.500000e+00	
4590	4.580960e-03	2.500000e+00	
4591	4.581960e-03	2.500000e+00	
4592	4.582960e-03	2.500000e+00	
4593	4.583960e-03	2.500000e+00	
4594	4.584960e-03	2.500000e+00	
4595	4.585960e-03	2.500000e+00	
4596	4.586960e-03	2.500000e+00	
4597	4.587960e-03	2.500000e+00	
4598	4.588960e-03	2.500000e+00	
4599	4.589960e-03	2.500000e+00	
4600	4.590960e-03	2.500000e+00	
4601	4.591960e-03	2.500000e+00	
4602	4.592960e-03	2.500000e+00	
4603	4.593960e-03	2.500000e+00	
4604	4.594960e-03	2.500000e+00	
4605	4.595960e-03	2.500000e+00	
4606	4.596960e-03	2.500000e+00	
4607	4.597960e-03	2.500000e+00	
4608	4.598960e-03	2.500000e+00	
4609	4.599960e-03	2.500000e+00	
4610	4.600960e-03	2.500000e+00	
4611	4.601960e-03	2.500000e+00	
4612	4.602960e-03	2.500000e+00	
4613	4.603960e-03	2.500000e+00	
4614	4.604960e-03	2.500000e+00	
4615	4.605960e-03	2.500000e+00	
4616	4.606960e-03	2.500000e+00	
4617	4.607960e-03	2.500000e+00	
4618	4.608960e-03	2.500000e+00	
4619	4.609960e-03	2.500000e+00	
4620	4.610960e-03	2.500000e+00	
4621	4.611960e-03	2.500000e+00	
4622	4.612960e-03	2.500000e+00	
4623	4.613960e-03	2.500000e+00	
4624	4.614960e-03	2.500000e+00	
4625	4.615960e-03	2.500000e+00	
4626	4.616960e-03	2.500000e+00	
4627	4.617960e-03	2.500000e+00	
4628	4.618960e-03	2.500000e+00	
4629	4.619960e-03	2.500000e+00	
4630	4.620960e-03	2.500000e+00	
4631	4.621960e-03	2.500000e+00	
4632	4.622960e-03	2.500000e+00	
4633	4.623960e-03	2.500000e+00	
4634	4.624960e-03	2.500000e+00	
4635	4.625960e-03	2.500000e+00	
4636	4.626960e-03	2.500000e+00	

Index   time            v(vref2)        
--------------------------------------------------------------------------------
4637	4.627960e-03	2.500000e+00	
4638	4.628960e-03	2.500000e+00	
4639	4.629960e-03	2.500000e+00	
4640	4.630960e-03	2.500000e+00	
4641	4.631960e-03	2.500000e+00	
4642	4.632960e-03	2.500000e+00	
4643	4.633960e-03	2.500000e+00	
4644	4.634960e-03	2.500000e+00	
4645	4.635960e-03	2.500000e+00	
4646	4.636960e-03	2.500000e+00	
4647	4.637960e-03	2.500000e+00	
4648	4.638960e-03	2.500000e+00	
4649	4.639960e-03	2.500000e+00	
4650	4.640960e-03	2.500000e+00	
4651	4.641960e-03	2.500000e+00	
4652	4.642960e-03	2.500000e+00	
4653	4.643960e-03	2.500000e+00	
4654	4.644960e-03	2.500000e+00	
4655	4.645960e-03	2.500000e+00	
4656	4.646960e-03	2.500000e+00	
4657	4.647960e-03	2.500000e+00	
4658	4.648960e-03	2.500000e+00	
4659	4.649960e-03	2.500000e+00	
4660	4.650960e-03	2.500000e+00	
4661	4.651960e-03	2.500000e+00	
4662	4.652960e-03	2.500000e+00	
4663	4.653960e-03	2.500000e+00	
4664	4.654960e-03	2.500000e+00	
4665	4.655960e-03	2.500000e+00	
4666	4.656960e-03	2.500000e+00	
4667	4.657960e-03	2.500000e+00	
4668	4.658960e-03	2.500000e+00	
4669	4.659960e-03	2.500000e+00	
4670	4.660960e-03	2.500000e+00	
4671	4.661960e-03	2.500000e+00	
4672	4.662960e-03	2.500000e+00	
4673	4.663960e-03	2.500000e+00	
4674	4.664960e-03	2.500000e+00	
4675	4.665960e-03	2.500000e+00	
4676	4.666960e-03	2.500000e+00	
4677	4.667960e-03	2.500000e+00	
4678	4.668960e-03	2.500000e+00	
4679	4.669960e-03	2.500000e+00	
4680	4.670960e-03	2.500000e+00	
4681	4.671960e-03	2.500000e+00	
4682	4.672960e-03	2.500000e+00	
4683	4.673960e-03	2.500000e+00	
4684	4.674960e-03	2.500000e+00	
4685	4.675960e-03	2.500000e+00	
4686	4.676960e-03	2.500000e+00	
4687	4.677960e-03	2.500000e+00	
4688	4.678960e-03	2.500000e+00	
4689	4.679960e-03	2.500000e+00	
4690	4.680960e-03	2.500000e+00	
4691	4.681960e-03	2.500000e+00	
4692	4.682960e-03	2.500000e+00	
4693	4.683960e-03	2.500000e+00	
4694	4.684960e-03	2.500000e+00	

Index   time            v(vref2)        
--------------------------------------------------------------------------------
4695	4.685960e-03	2.500000e+00	
4696	4.686960e-03	2.500000e+00	
4697	4.687960e-03	2.500000e+00	
4698	4.688960e-03	2.500000e+00	
4699	4.689960e-03	2.500000e+00	
4700	4.690960e-03	2.500000e+00	
4701	4.691960e-03	2.500000e+00	
4702	4.692960e-03	2.500000e+00	
4703	4.693960e-03	2.500000e+00	
4704	4.694960e-03	2.500000e+00	
4705	4.695960e-03	2.500000e+00	
4706	4.696960e-03	2.500000e+00	
4707	4.697960e-03	2.500000e+00	
4708	4.698960e-03	2.500000e+00	
4709	4.699960e-03	2.500000e+00	
4710	4.700960e-03	2.500000e+00	
4711	4.701960e-03	2.500000e+00	
4712	4.702960e-03	2.500000e+00	
4713	4.703960e-03	2.500000e+00	
4714	4.704960e-03	2.500000e+00	
4715	4.705960e-03	2.500000e+00	
4716	4.706960e-03	2.500000e+00	
4717	4.707960e-03	2.500000e+00	
4718	4.708960e-03	2.500000e+00	
4719	4.709960e-03	2.500000e+00	
4720	4.710960e-03	2.500000e+00	
4721	4.711960e-03	2.500000e+00	
4722	4.712960e-03	2.500000e+00	
4723	4.713960e-03	2.500000e+00	
4724	4.714960e-03	2.500000e+00	
4725	4.715960e-03	2.500000e+00	
4726	4.716960e-03	2.500000e+00	
4727	4.717960e-03	2.500000e+00	
4728	4.718960e-03	2.500000e+00	
4729	4.719960e-03	2.500000e+00	
4730	4.720960e-03	2.500000e+00	
4731	4.721960e-03	2.500000e+00	
4732	4.722960e-03	2.500000e+00	
4733	4.723960e-03	2.500000e+00	
4734	4.724960e-03	2.500000e+00	
4735	4.725960e-03	2.500000e+00	
4736	4.726960e-03	2.500000e+00	
4737	4.727960e-03	2.500000e+00	
4738	4.728960e-03	2.500000e+00	
4739	4.729960e-03	2.500000e+00	
4740	4.730960e-03	2.500000e+00	
4741	4.731960e-03	2.500000e+00	
4742	4.732960e-03	2.500000e+00	
4743	4.733960e-03	2.500000e+00	
4744	4.734960e-03	2.500000e+00	
4745	4.735960e-03	2.500000e+00	
4746	4.736960e-03	2.500000e+00	
4747	4.737960e-03	2.500000e+00	
4748	4.738960e-03	2.500000e+00	
4749	4.739960e-03	2.500000e+00	
4750	4.740960e-03	2.500000e+00	
4751	4.741960e-03	2.500000e+00	
4752	4.742960e-03	2.500000e+00	

Index   time            v(vref2)        
--------------------------------------------------------------------------------
4753	4.743960e-03	2.500000e+00	
4754	4.744960e-03	2.500000e+00	
4755	4.745960e-03	2.500000e+00	
4756	4.746960e-03	2.500000e+00	
4757	4.747960e-03	2.500000e+00	
4758	4.748960e-03	2.500000e+00	
4759	4.749960e-03	2.500000e+00	
4760	4.750960e-03	2.500000e+00	
4761	4.751960e-03	2.500000e+00	
4762	4.752960e-03	2.500000e+00	
4763	4.753960e-03	2.500000e+00	
4764	4.754960e-03	2.500000e+00	
4765	4.755960e-03	2.500000e+00	
4766	4.756960e-03	2.500000e+00	
4767	4.757960e-03	2.500000e+00	
4768	4.758960e-03	2.500000e+00	
4769	4.759960e-03	2.500000e+00	
4770	4.760960e-03	2.500000e+00	
4771	4.761960e-03	2.500000e+00	
4772	4.762960e-03	2.500000e+00	
4773	4.763960e-03	2.500000e+00	
4774	4.764960e-03	2.500000e+00	
4775	4.765960e-03	2.500000e+00	
4776	4.766960e-03	2.500000e+00	
4777	4.767960e-03	2.500000e+00	
4778	4.768960e-03	2.500000e+00	
4779	4.769960e-03	2.500000e+00	
4780	4.770960e-03	2.500000e+00	
4781	4.771960e-03	2.500000e+00	
4782	4.772960e-03	2.500000e+00	
4783	4.773960e-03	2.500000e+00	
4784	4.774960e-03	2.500000e+00	
4785	4.775960e-03	2.500000e+00	
4786	4.776960e-03	2.500000e+00	
4787	4.777960e-03	2.500000e+00	
4788	4.778960e-03	2.500000e+00	
4789	4.779960e-03	2.500000e+00	
4790	4.780960e-03	2.500000e+00	
4791	4.781960e-03	2.500000e+00	
4792	4.782960e-03	2.500000e+00	
4793	4.783960e-03	2.500000e+00	
4794	4.784960e-03	2.500000e+00	
4795	4.785960e-03	2.500000e+00	
4796	4.786960e-03	2.500000e+00	
4797	4.787960e-03	2.500000e+00	
4798	4.788960e-03	2.500000e+00	
4799	4.789960e-03	2.500000e+00	
4800	4.790960e-03	2.500000e+00	
4801	4.791960e-03	2.500000e+00	
4802	4.792960e-03	2.500000e+00	
4803	4.793960e-03	2.500000e+00	
4804	4.794960e-03	2.500000e+00	
4805	4.795960e-03	2.500000e+00	
4806	4.796960e-03	2.500000e+00	
4807	4.797960e-03	2.500000e+00	
4808	4.798960e-03	2.500000e+00	
4809	4.799960e-03	2.500000e+00	
4810	4.800960e-03	2.500000e+00	

Index   time            v(vref2)        
--------------------------------------------------------------------------------
4811	4.801960e-03	2.500000e+00	
4812	4.802960e-03	2.500000e+00	
4813	4.803960e-03	2.500000e+00	
4814	4.804960e-03	2.500000e+00	
4815	4.805960e-03	2.500000e+00	
4816	4.806960e-03	2.500000e+00	
4817	4.807960e-03	2.500000e+00	
4818	4.808960e-03	2.500000e+00	
4819	4.809960e-03	2.500000e+00	
4820	4.810960e-03	2.500000e+00	
4821	4.811960e-03	2.500000e+00	
4822	4.812960e-03	2.500000e+00	
4823	4.813960e-03	2.500000e+00	
4824	4.814960e-03	2.500000e+00	
4825	4.815960e-03	2.500000e+00	
4826	4.816960e-03	2.500000e+00	
4827	4.817960e-03	2.500000e+00	
4828	4.818960e-03	2.500000e+00	
4829	4.819960e-03	2.500000e+00	
4830	4.820960e-03	2.500000e+00	
4831	4.821960e-03	2.500000e+00	
4832	4.822960e-03	2.500000e+00	
4833	4.823960e-03	2.500000e+00	
4834	4.824960e-03	2.500000e+00	
4835	4.825960e-03	2.500000e+00	
4836	4.826960e-03	2.500000e+00	
4837	4.827960e-03	2.500000e+00	
4838	4.828960e-03	2.500000e+00	
4839	4.829960e-03	2.500000e+00	
4840	4.830960e-03	2.500000e+00	
4841	4.831960e-03	2.500000e+00	
4842	4.832960e-03	2.500000e+00	
4843	4.833960e-03	2.500000e+00	
4844	4.834960e-03	2.500000e+00	
4845	4.835960e-03	2.500000e+00	
4846	4.836960e-03	2.500000e+00	
4847	4.837960e-03	2.500000e+00	
4848	4.838960e-03	2.500000e+00	
4849	4.839960e-03	2.500000e+00	
4850	4.840960e-03	2.500000e+00	
4851	4.841960e-03	2.500000e+00	
4852	4.842960e-03	2.500000e+00	
4853	4.843960e-03	2.500000e+00	
4854	4.844960e-03	2.500000e+00	
4855	4.845960e-03	2.500000e+00	
4856	4.846960e-03	2.500000e+00	
4857	4.847960e-03	2.500000e+00	
4858	4.848960e-03	2.500000e+00	
4859	4.849960e-03	2.500000e+00	
4860	4.850960e-03	2.500000e+00	
4861	4.851960e-03	2.500000e+00	
4862	4.852960e-03	2.500000e+00	
4863	4.853960e-03	2.500000e+00	
4864	4.854960e-03	2.500000e+00	
4865	4.855960e-03	2.500000e+00	
4866	4.856960e-03	2.500000e+00	
4867	4.857960e-03	2.500000e+00	
4868	4.858960e-03	2.500000e+00	

Index   time            v(vref2)        
--------------------------------------------------------------------------------
4869	4.859960e-03	2.500000e+00	
4870	4.860960e-03	2.500000e+00	
4871	4.861960e-03	2.500000e+00	
4872	4.862960e-03	2.500000e+00	
4873	4.863960e-03	2.500000e+00	
4874	4.864960e-03	2.500000e+00	
4875	4.865960e-03	2.500000e+00	
4876	4.866960e-03	2.500000e+00	
4877	4.867960e-03	2.500000e+00	
4878	4.868960e-03	2.500000e+00	
4879	4.869960e-03	2.500000e+00	
4880	4.870960e-03	2.500000e+00	
4881	4.871960e-03	2.500000e+00	
4882	4.872960e-03	2.500000e+00	
4883	4.873960e-03	2.500000e+00	
4884	4.874960e-03	2.500000e+00	
4885	4.875960e-03	2.500000e+00	
4886	4.876960e-03	2.500000e+00	
4887	4.877960e-03	2.500000e+00	
4888	4.878960e-03	2.500000e+00	
4889	4.879960e-03	2.500000e+00	
4890	4.880960e-03	2.500000e+00	
4891	4.881960e-03	2.500000e+00	
4892	4.882960e-03	2.500000e+00	
4893	4.883960e-03	2.500000e+00	
4894	4.884960e-03	2.500000e+00	
4895	4.885960e-03	2.500000e+00	
4896	4.886960e-03	2.500000e+00	
4897	4.887960e-03	2.500000e+00	
4898	4.888960e-03	2.500000e+00	
4899	4.889960e-03	2.500000e+00	
4900	4.890960e-03	2.500000e+00	
4901	4.891960e-03	2.500000e+00	
4902	4.892960e-03	2.500000e+00	
4903	4.893960e-03	2.500000e+00	
4904	4.894960e-03	2.500000e+00	
4905	4.895960e-03	2.500000e+00	
4906	4.896960e-03	2.500000e+00	
4907	4.897960e-03	2.500000e+00	
4908	4.898960e-03	2.500000e+00	
4909	4.899960e-03	2.500000e+00	
4910	4.900960e-03	2.500000e+00	
4911	4.901960e-03	2.500000e+00	
4912	4.902960e-03	2.500000e+00	
4913	4.903960e-03	2.500000e+00	
4914	4.904960e-03	2.500000e+00	
4915	4.905960e-03	2.500000e+00	
4916	4.906960e-03	2.500000e+00	
4917	4.907960e-03	2.500000e+00	
4918	4.908960e-03	2.500000e+00	
4919	4.909960e-03	2.500000e+00	
4920	4.910960e-03	2.500000e+00	
4921	4.911960e-03	2.500000e+00	
4922	4.912960e-03	2.500000e+00	
4923	4.913960e-03	2.500000e+00	
4924	4.914960e-03	2.500000e+00	
4925	4.915960e-03	2.500000e+00	
4926	4.916960e-03	2.500000e+00	

Index   time            v(vref2)        
--------------------------------------------------------------------------------
4927	4.917960e-03	2.500000e+00	
4928	4.918960e-03	2.500000e+00	
4929	4.919960e-03	2.500000e+00	
4930	4.920960e-03	2.500000e+00	
4931	4.921960e-03	2.500000e+00	
4932	4.922960e-03	2.500000e+00	
4933	4.923960e-03	2.500000e+00	
4934	4.924960e-03	2.500000e+00	
4935	4.925960e-03	2.500000e+00	
4936	4.926960e-03	2.500000e+00	
4937	4.927960e-03	2.500000e+00	
4938	4.928960e-03	2.500000e+00	
4939	4.929960e-03	2.500000e+00	
4940	4.930960e-03	2.500000e+00	
4941	4.931960e-03	2.500000e+00	
4942	4.932960e-03	2.500000e+00	
4943	4.933960e-03	2.500000e+00	
4944	4.934960e-03	2.500000e+00	
4945	4.935960e-03	2.500000e+00	
4946	4.936960e-03	2.500000e+00	
4947	4.937960e-03	2.500000e+00	
4948	4.938960e-03	2.500000e+00	
4949	4.939960e-03	2.500000e+00	
4950	4.940960e-03	2.500000e+00	
4951	4.941960e-03	2.500000e+00	
4952	4.942960e-03	2.500000e+00	
4953	4.943960e-03	2.500000e+00	
4954	4.944960e-03	2.500000e+00	
4955	4.945960e-03	2.500000e+00	
4956	4.946960e-03	2.500000e+00	
4957	4.947960e-03	2.500000e+00	
4958	4.948960e-03	2.500000e+00	
4959	4.949960e-03	2.500000e+00	
4960	4.950960e-03	2.500000e+00	
4961	4.951960e-03	2.500000e+00	
4962	4.952960e-03	2.500000e+00	
4963	4.953960e-03	2.500000e+00	
4964	4.954960e-03	2.500000e+00	
4965	4.955960e-03	2.500000e+00	
4966	4.956960e-03	2.500000e+00	
4967	4.957960e-03	2.500000e+00	
4968	4.958960e-03	2.500000e+00	
4969	4.959960e-03	2.500000e+00	
4970	4.960960e-03	2.500000e+00	
4971	4.961960e-03	2.500000e+00	
4972	4.962960e-03	2.500000e+00	
4973	4.963960e-03	2.500000e+00	
4974	4.964960e-03	2.500000e+00	
4975	4.965960e-03	2.500000e+00	
4976	4.966960e-03	2.500000e+00	
4977	4.967960e-03	2.500000e+00	
4978	4.968960e-03	2.500000e+00	
4979	4.969960e-03	2.500000e+00	
4980	4.970960e-03	2.500000e+00	
4981	4.971960e-03	2.500000e+00	
4982	4.972960e-03	2.500000e+00	
4983	4.973960e-03	2.500000e+00	
4984	4.974960e-03	2.500000e+00	

Index   time            v(vref2)        
--------------------------------------------------------------------------------
4985	4.975960e-03	2.500000e+00	
4986	4.976960e-03	2.500000e+00	
4987	4.977960e-03	2.500000e+00	
4988	4.978960e-03	2.500000e+00	
4989	4.979960e-03	2.500000e+00	
4990	4.980960e-03	2.500000e+00	
4991	4.981960e-03	2.500000e+00	
4992	4.982960e-03	2.500000e+00	
4993	4.983960e-03	2.500000e+00	
4994	4.984960e-03	2.500000e+00	
4995	4.985960e-03	2.500000e+00	
4996	4.986960e-03	2.500000e+00	
4997	4.987960e-03	2.500000e+00	
4998	4.988960e-03	2.500000e+00	
4999	4.989960e-03	2.500000e+00	
5000	4.990960e-03	2.500000e+00	
5001	4.991960e-03	2.500000e+00	
5002	4.992960e-03	2.500000e+00	
5003	4.993960e-03	2.500000e+00	
5004	4.994960e-03	2.500000e+00	
5005	4.995960e-03	2.500000e+00	
5006	4.996960e-03	2.500000e+00	
5007	4.997960e-03	2.500000e+00	
5008	4.998960e-03	2.500000e+00	
5009	4.999960e-03	2.500000e+00	
5010	5.000000e-03	2.500000e+00	


Total analysis time (seconds) = 0.024

Total elapsed time (seconds) = 0.266 

Total DRAM available = 32452.422 MB.
DRAM currently available = 8227.215 MB.
Maximum ngspice program size =   16.480 MB.
Current ngspice program size =   16.363 MB.

