
Note: No compatibility mode selected!


Circuit: m3 dc at 10ms

Doing analysis at TEMP = 27.000000 and TNOM = 27.000000

Using transient initial conditions

No. of Data Rows : 10011

  Measurements for Transient Analysis

v_vref              =  5.000000e+00
v_rc_5ms            =  3.121984e+00
v_cap_5ms           =  3.091827e+00
v_rc_10ms           =  3.124968e+00
v_cap_10ms          =  3.124648e+00
v_vref2             =  2.500000e+00


Total analysis time (seconds) = 0.063

Total elapsed time (seconds) = 0.152 

Total DRAM available = 32452.422 MB.
DRAM currently available = 4162.371 MB.
Maximum ngspice program size =   16.230 MB.
Current ngspice program size =   16.230 MB.

