
Note: No compatibility mode selected!


Circuit: m3 r1 10k at 100ms

Doing analysis at TEMP = 27.000000 and TNOM = 27.000000

Using transient initial conditions

No. of Data Rows : 10011

  Measurements for Transient Analysis

v_rc_50ms           =  2.062355e+00
v_cap_50ms          =  2.047898e+00
v_rc_100ms          =  2.062499e+00
v_cap_100ms         =  2.062397e+00


Total analysis time (seconds) = 0.062

Total elapsed time (seconds) = 0.141 

Total DRAM available = 32452.422 MB.
DRAM currently available = 4351.641 MB.
Maximum ngspice program size =   16.145 MB.
Current ngspice program size =   16.145 MB.

