
Note: No compatibility mode selected!


Circuit: m3 r1 10k

Doing analysis at TEMP = 27.000000 and TNOM = 27.000000

Using transient initial conditions

No. of Data Rows : 5011

  Measurements for Transient Analysis

v_rc                =  2.062355e+00
v_cap               =  2.047898e+00


Total analysis time (seconds) = 0.016

Total elapsed time (seconds) = 0.058 

Total DRAM available = 32452.422 MB.
DRAM currently available = 8244.562 MB.
Maximum ngspice program size =   16.059 MB.
Current ngspice program size =   16.059 MB.

