
Note: No compatibility mode selected!


Circuit: m3 vref33 at 10ms

Doing analysis at TEMP = 27.000000 and TNOM = 27.000000

Using transient initial conditions

No. of Data Rows : 10011

  Measurements for Transient Analysis

v_rc_5ms            =  2.060510e+00
v_cap_5ms           =  2.040606e+00
v_rc_10ms           =  2.062479e+00
v_cap_10ms          =  2.062268e+00


Total analysis time (seconds) = 0.058

Total elapsed time (seconds) = 0.140 

Total DRAM available = 32452.422 MB.
DRAM currently available = 4264.410 MB.
Maximum ngspice program size =   16.086 MB.
Current ngspice program size =   16.086 MB.

