
Note: No compatibility mode selected!


Circuit: m3 vref33

Doing analysis at TEMP = 27.000000 and TNOM = 27.000000

Using transient initial conditions

No. of Data Rows : 5011

  Measurements for Transient Analysis

v_vref              =  3.300000e+00
v_rc                =  2.060510e+00
v_cap               =  2.040606e+00
v_vref2             =  2.500000e+00


Total analysis time (seconds) = 0.015

Total elapsed time (seconds) = 0.064 

Total DRAM available = 32452.422 MB.
DRAM currently available = 7026.160 MB.
Maximum ngspice program size =   16.129 MB.
Current ngspice program size =   16.129 MB.

