
Note: No compatibility mode selected!


Circuit: pin loading loaded

Doing analysis at TEMP = 27.000000 and TNOM = 27.000000


No. of Data Rows : 1
	Node                                  Voltage
	----                                  -------
	----	-------
	div                              2.498751e+00
	vs                               5.000000e+00

	Source	Current
	------	-------

	vs#branch                        -2.50125e-04

 Resistor models (Simple linear resistor)
      model                     R

        rsh                     0
     narrow                     0
      short                     0
        tc1                     0
        tc2                     0
        tce                     0
       defw                 1e-05
          l                 1e-05
         kf                     0
         af                     0
          r                     0
     bv_max                 1e+99
         lf                     1
         wf                     1
         ef                     1

 Resistor: Simple linear resistor
     device                 rload                    r2                    r1
      model                     R                     R                     R
 resistance                 1e+07                 10000                 10000
         ac                 1e+07                 10000                 10000
      dtemp                     0                     0                     0
     bv_max                 1e+99                 1e+99                 1e+99
      noisy                     1                     1                     1
          i           2.49875e-07           0.000249875           0.000250125
          p           6.24375e-07           0.000624375           0.000625625

 Vsource: Independent voltage source
     device                    vs
         dc                     5
      acmag                     0
      pulse         -
        sin         -
        exp         -
        pwl         -
       sffm         -
         am         -
    trnoise         -
   trrandom         -
    portnum                     0
         z0                     0
        pwr                     0
       freq                     0
      phase                     0
          i          -0.000250125
          p           -0.00125062


Total analysis time (seconds) = 0.002

Total elapsed time (seconds) = 0.046 

Total DRAM available = 32452.422 MB.
DRAM currently available = 8217.109 MB.
Maximum ngspice program size =   15.875 MB.
Current ngspice program size =   15.875 MB.

