
Note: No compatibility mode selected!


Circuit: rout override 75ohm

Doing analysis at TEMP = 27.000000 and TNOM = 27.000000


No. of Data Rows : 1
	Node                                  Voltage
	----                                  -------
	----	-------
	junction                         3.275434e+00
	source                           3.300000e+00

	Source	Current
	------	-------

	voh#branch                       -3.27543e-04

 Resistor models (Simple linear resistor)
      model                     R

        rsh                     0
     narrow                     0
      short                     0
        tc1                     0
        tc2                     0
        tce                     0
       defw                 1e-05
          l                 1e-05
         kf                     0
         af                     0
          r                     0
     bv_max                 1e+99
         lf                     1
         wf                     1
         ef                     1

 Resistor: Simple linear resistor
     device                 rload                  rout
      model                     R                     R
 resistance                 10000                    75
         ac                 10000                    75
      dtemp                     0                     0
     bv_max                 1e+99                 1e+99
      noisy                     1                     1
          i           0.000327543           0.000327543
          p            0.00107285           8.04635e-06

 Vsource: Independent voltage source
     device                   voh
         dc                   3.3
      acmag                     0
      pulse         -
        sin         -
        exp         -
        pwl         -
       sffm         -
         am         -
    trnoise         -
   trrandom         -
    portnum                     0
         z0                     0
        pwr                     0
       freq                     0
      phase                     0
          i          -0.000327543
          p           -0.00108089


Total analysis time (seconds) = 0.004

Total elapsed time (seconds) = 0.057 

Total DRAM available = 32452.422 MB.
DRAM currently available = 8099.438 MB.
Maximum ngspice program size =   15.961 MB.
Current ngspice program size =   15.961 MB.

