
Note: No compatibility mode selected!


Circuit: rout override 100k

Doing analysis at TEMP = 27.000000 and TNOM = 27.000000


No. of Data Rows : 1
	Node                                  Voltage
	----                                  -------
	----	-------
	junction                         4.545455e-01
	source                           5.000000e+00

	Source	Current
	------	-------

	voh#branch                       -4.54545e-05

 Resistor models (Simple linear resistor)
      model                     R

        rsh                     0
     narrow                     0
      short                     0
        tc1                     0
        tc2                     0
        tce                     0
       defw                 1e-05
          l                 1e-05
         kf                     0
         af                     0
          r                     0
     bv_max                 1e+99
         lf                     1
         wf                     1
         ef                     1

 Resistor: Simple linear resistor
     device                 rload                  rout
      model                     R                     R
 resistance                 10000                100000
         ac                 10000                100000
      dtemp                     0                     0
     bv_max                 1e+99                 1e+99
      noisy                     1                     1
          i           4.54545e-05           4.54545e-05
          p           2.06612e-05           0.000206612

 Vsource: Independent voltage source
     device                   voh
         dc                     5
      acmag                     0
      pulse         -
        sin         -
        exp         -
        pwl         -
       sffm         -
         am         -
    trnoise         -
   trrandom         -
    portnum                     0
         z0                     0
        pwr                     0
       freq                     0
      phase                     0
          i          -4.54545e-05
          p          -0.000227273


Total analysis time (seconds) = 0.001

Total elapsed time (seconds) = 0.042 

Total DRAM available = 32452.422 MB.
DRAM currently available = 7952.516 MB.
Maximum ngspice program size =   15.871 MB.
Current ngspice program size =   15.871 MB.

