
Note: No compatibility mode selected!


Circuit: test circuit

Doing analysis at TEMP = 27.000000 and TNOM = 27.000000


No. of Data Rows : 1
	Node                                  Voltage
	----                                  -------
	----	-------
	V(1)                             5.000000e+00

	Source	Current
	------	-------

	v1#branch                        -5.00000e-03

 Resistor models (Simple linear resistor)
      model                     R

        rsh                     0
     narrow                     0
      short                     0
        tc1                     0
        tc2                     0
        tce                     0
       defw                 1e-05
          l                 1e-05
         kf                     0
         af                     0
          r                     0
     bv_max                 1e+99
         lf                     1
         wf                     1
         ef                     1

 Resistor: Simple linear resistor
     device                    r1
      model                     R
 resistance                  1000
         ac                  1000
      dtemp                     0
     bv_max                 1e+99
      noisy                     1
          i                 0.005
          p                 0.025

 Vsource: Independent voltage source
     device                    v1
         dc                     5
      acmag                     0
      pulse         -
        sin         -
        exp         -
        pwl         -
       sffm         -
         am         -
    trnoise         -
   trrandom         -
    portnum                     0
         z0                     0
        pwr                     0
       freq                     0
      phase                     0
          i                -0.005
          p                -0.025


Total analysis time (seconds) = 0.002

Total elapsed time (seconds) = 0.037 

Total DRAM available = 32452.422 MB.
DRAM currently available = 8486.965 MB.
Maximum ngspice program size =   15.891 MB.
Current ngspice program size =   15.891 MB.

